@<TRIPOS>MOLECULE
/home/pku/3cl/gett_pdb/5RVE/5RVE_mol2/ligand/5RVE_W8A.pdb
 26 26 0 0 0
SMALL
GASTEIGER

@<TRIPOS>ATOM
      1  C01      -44.0970  -28.2230    1.2940 C.3   201  W8A201     -0.0448
      2  C02      -44.9280  -29.4320    1.7630 C.3   201  W8A201      0.0796
      3  C04      -44.6470  -32.4700    1.5020 C.3   201  W8A201      0.0339
      4  C05      -43.5130  -32.5690    2.5040 C.2   201  W8A201      0.0515
      5  C08      -46.3960  -29.1930    2.0730 C.2   201  W8A201      0.2357
      6  C11      -48.1840  -29.0420    3.8160 C.3   201  W8A201      0.0394
      7  C12      -48.1360  -29.0510    5.3070 C.3   201  W8A201      0.0294
      8  C14      -45.9790  -29.2500    4.5140 C.2   201  W8A201      0.3086
      9  N10      -46.8370  -29.1910    3.3870 N.am  201  W8A201     -0.2236
     10  N13      -46.7640  -29.1700    5.6820 N.am  201  W8A201     -0.2974
     11  O06      -43.2770  -33.7560    2.5850 O.co2 201  W8A201     -0.5490
     12  O07      -42.9410  -31.6910    3.2500 O.co2 201  W8A201     -0.5490
     13  O09      -47.2670  -29.1040    1.3170 O.2   201  W8A201     -0.2739
     14  O15      -44.8280  -29.3180    4.4690 O.2   201  W8A201     -0.2522
     15  S03      -44.7250  -30.9030    0.6480 S.3   201  W8A201     -0.1424
     16 H013      -43.3500  -28.0900    1.8980 H     201  W8A201      0.0245
     17 H012      -44.6550  -27.4290    1.2900 H     201  W8A201      0.0245
     18 H011      -43.7630  -28.3880    0.3990 H     201  W8A201      0.0245
     19 H021      -44.4780  -29.7390    2.5480 H     201  W8A201      0.0504
     20 H041      -44.5370  -33.1740    0.8430 H     201  W8A201      0.0437
     21 H042      -45.4870  -32.6100    1.9660 H     201  W8A201      0.0437
     22 H111      -48.6280  -29.8650    3.5850 H     201  W8A201      0.0485
     23 H112      -48.4840  -28.1620    3.5390 H     201  W8A201      0.0485
     24 H122      -48.5720  -29.8690    5.5900 H     201  W8A201      0.0478
     25 H121      -48.4230  -28.1710    5.5950 H     201  W8A201      0.0478
     26 H131      -46.4660  -29.1920    6.4880 H     201  W8A201      0.1503
@<TRIPOS>UNITY_ATOM_ATTR
12 1
charge -1
@<TRIPOS>BOND
     1    18     1    1
     2    15     3    1
     3    15     2    1
     4    20     3    1
     5    17     1    1
     6     1     2    1
     7     1    16    1
     8    13     5    2
     9     3    21    1
    10     3     4    1
    11     2     5    1
    12     2    19    1
    13     5     9   am
    14     4    11   ar
    15     4    12   ar
    16     9     6    1
    17     9     8   am
    18    23     6    1
    19    22     6    1
    20     6     7    1
    21    14     8    2
    22     8    10   am
    23     7    24    1
    24     7    25    1
    25     7    10    1
    26    10    26    1
