T84
  -OEChem-02242320043D

 31 32  0     0  0  0  0  0  0999 V2000
   -0.0950    0.8870    0.1100 N   0  0  0  0  0  0  0  0  0  0  0  0
    1.1010    1.3320    0.8370 C   0  0  0  0  0  0  0  0  0  0  0  0
    2.3040    0.5760    0.3350 C   0  0  0  0  0  0  0  0  0  0  0  0
    3.0810    1.0270   -0.7180 C   0  0  0  0  0  0  0  0  0  0  0  0
    4.1090    0.2400   -1.0360 C   0  0  0  0  0  0  0  0  0  0  0  0
    2.7040   -0.5760    0.8760 C   0  0  0  0  0  0  0  0  0  0  0  0
   -1.5420   -0.9940   -0.4960 C   0  0  0  0  0  0  0  0  0  0  0  0
   -2.6730   -0.0640   -0.3560 N   0  0  0  0  0  0  0  0  0  0  0  0
   -4.1570   -1.9990    0.0610 C   0  0  0  0  0  0  0  0  0  0  0  0
   -4.8350    0.2610    0.0190 O   0  0  0  0  0  0  0  0  0  0  0  0
   -3.9140   -0.5200   -0.0930 C   0  0  0  0  0  0  0  0  0  0  0  0
   -2.4140    1.3750   -0.5110 C   0  0  0  0  0  0  0  0  0  0  0  0
   -1.2420    1.7590    0.3990 C   0  0  0  0  0  0  0  0  0  0  0  0
   -0.4040   -0.5170    0.4140 C   0  0  0  0  0  0  0  0  0  0  0  0
    4.1320   -1.1600    0.0300 S   0  0  0  0  0  0  0  0  0  0  0  0
    1.2490    2.3990    0.6750 H   0  0  0  0  0  0  0  0  0  0  0  0
    0.9700    1.1410    1.9030 H   0  0  0  0  0  0  0  0  0  0  0  0
    2.8700    1.9480   -1.2420 H   0  0  0  0  0  0  0  0  0  0  0  0
    4.8190    0.4310   -1.8270 H   0  0  0  0  0  0  0  0  0  0  0  0
    2.2240   -1.0750    1.7040 H   0  0  0  0  0  0  0  0  0  0  0  0
   -1.8520   -1.9960   -0.1990 H   0  0  0  0  0  0  0  0  0  0  0  0
   -1.2010   -1.0080   -1.5310 H   0  0  0  0  0  0  0  0  0  0  0  0
   -5.2130   -2.1740    0.2690 H   0  0  0  0  0  0  0  0  0  0  0  0
   -3.8780   -2.5110   -0.8600 H   0  0  0  0  0  0  0  0  0  0  0  0
   -3.5560   -2.3820    0.8860 H   0  0  0  0  0  0  0  0  0  0  0  0
   -2.1580    1.5920   -1.5480 H   0  0  0  0  0  0  0  0  0  0  0  0
   -3.3020    1.9400   -0.2270 H   0  0  0  0  0  0  0  0  0  0  0  0
   -1.5360    1.6390    1.4410 H   0  0  0  0  0  0  0  0  0  0  0  0
   -0.9640    2.7970    0.2160 H   0  0  0  0  0  0  0  0  0  0  0  0
    0.4810   -1.1290    0.2410 H   0  0  0  0  0  0  0  0  0  0  0  0
   -0.7100   -0.6050    1.4560 H   0  0  0  0  0  0  0  0  0  0  0  0
  9 11  1  0  0  0  0
 10 11  2  0  0  0  0
  8 11  1  0  0  0  0
  8 12  1  0  0  0  0
 12 13  1  0  0  0  0
  1 13  1  0  0  0  0
  1  2  1  0  0  0  0
  2  3  1  0  0  0  0
  3  4  1  0  0  0  0
  4  5  2  0  0  0  0
  5 15  1  0  0  0  0
  6 15  1  0  0  0  0
  3  6  2  0  0  0  0
  1 14  1  0  0  0  0
  7 14  1  0  0  0  0
  7  8  1  0  0  0  0
  2 16  1  0  0  0  0
  2 17  1  0  0  0  0
  4 18  1  0  0  0  0
  5 19  1  0  0  0  0
  6 20  1  0  0  0  0
  7 21  1  0  0  0  0
  7 22  1  0  0  0  0
  9 23  1  0  0  0  0
  9 24  1  0  0  0  0
  9 25  1  0  0  0  0
 12 26  1  0  0  0  0
 12 27  1  0  0  0  0
 13 28  1  0  0  0  0
 13 29  1  0  0  0  0
 14 30  1  0  0  0  0
 14 31  1  0  0  0  0
M  END
> <OPENEYE_ISO_SMILES>
CC(=O)N1CCN(CC1)Cc2ccsc2

> <OPENEYE_INCHI>
InChI=1S/C11H16N2OS/c1-10(14)13-5-3-12(4-6-13)8-11-2-7-15-9-11/h2,7,9H,3-6,8H2,1H3

> <OPENEYE_INCHIKEY>
GHWOPOKXTBUQPP-UHFFFAOYSA-N

> <FORMULA>
C11H16N2OS

$$$$
