RLN
  -OEChem-02242320043D

 37 39  0     0  0  0  0  0  0999 V2000
    6.4220    0.5000    0.0020 C   0  0  0  0  0  0  0  0  0  0  0  0
    5.0760    1.0460    0.0010 C   0  0  0  0  0  0  0  0  0  0  0  0
    3.4220    2.6830   -0.0020 C   0  0  0  0  0  0  0  0  0  0  0  0
    2.4070    1.7400   -0.0010 C   0  0  0  0  0  0  0  0  0  0  0  0
    2.7420    0.3870    0.0020 C   0  0  0  0  0  0  0  0  0  0  0  0
    1.6910   -0.6540    0.0030 C   0  0  0  0  0  0  0  0  0  0  0  0
    6.4880   -0.8180   -0.0010 C   0  0  0  0  0  0  0  0  0  0  0  0
   -6.9230    0.1240   -0.0010 C   0  0  0  0  0  0  0  0  0  0  0  0
   -5.8530    1.1860   -0.0030 C   0  0  0  0  0  0  0  0  0  0  0  0
   -4.4960    0.5300   -0.0020 C   0  0  0  0  0  0  0  0  0  0  0  0
   -3.8730    0.2270   -1.1980 C   0  0  0  0  0  0  0  0  0  0  0  0
   -2.6280   -0.3740   -1.1960 C   0  0  0  0  0  0  0  0  0  0  0  0
   -2.0070   -0.6730    0.0020 C   0  0  0  0  0  0  0  0  0  0  0  0
   -0.6500   -1.3290    0.0030 C   0  0  0  0  0  0  0  0  0  0  0  0
    4.1080    0.0350    0.0030 C   0  0  0  0  0  0  0  0  0  0  0  0
   -2.6290   -0.3700    1.1980 C   0  0  0  0  0  0  0  0  0  0  0  0
   -3.8710    0.2370    1.1960 C   0  0  0  0  0  0  0  0  0  0  0  0
    0.3910   -0.2980    0.0020 N   0  0  0  0  0  0  0  0  0  0  0  0
    4.6830    2.3320   -0.0020 N   0  0  0  0  0  0  0  0  0  0  0  0
   -8.2180    0.4770   -0.0020 O   0  0  0  0  0  0  0  0  0  0  0  0
   -6.6150   -1.0440    0.0020 O   0  0  0  0  0  0  0  0  0  0  0  0
    2.0000   -1.8290    0.0060 O   0  0  0  0  0  0  0  0  0  0  0  0
    4.8900   -1.5390   -0.0050 S   0  0  0  0  0  0  0  0  0  0  0  0
    7.3020    1.1250   -0.0000 H   0  0  0  0  0  0  0  0  0  0  0  0
    3.1670    3.7330   -0.0040 H   0  0  0  0  0  0  0  0  0  0  0  0
    1.3720    2.0490   -0.0010 H   0  0  0  0  0  0  0  0  0  0  0  0
    7.4100   -1.3810   -0.0040 H   0  0  0  0  0  0  0  0  0  0  0  0
   -5.9570    1.8040   -0.8950 H   0  0  0  0  0  0  0  0  0  0  0  0
   -5.9570    1.8080    0.8850 H   0  0  0  0  0  0  0  0  0  0  0  0
   -4.3590    0.4600   -2.1340 H   0  0  0  0  0  0  0  0  0  0  0  0
   -2.1420   -0.6120   -2.1310 H   0  0  0  0  0  0  0  0  0  0  0  0
   -0.5470   -1.9490    0.8950 H   0  0  0  0  0  0  0  0  0  0  0  0
   -0.5460   -1.9520   -0.8850 H   0  0  0  0  0  0  0  0  0  0  0  0
   -2.1440   -0.6030    2.1340 H   0  0  0  0  0  0  0  0  0  0  0  0
   -4.3580    0.4740    2.1310 H   0  0  0  0  0  0  0  0  0  0  0  0
    0.1440    0.6400    0.0000 H   0  0  0  0  0  0  0  0  0  0  0  0
   -8.8680   -0.2390   -0.0000 H   0  0  0  0  0  0  0  0  0  0  0  0
  7 23  1  0  0  0  0
  1  7  2  0  0  0  0
 15 23  1  0  0  0  0
  1  2  1  0  0  0  0
  6 22  2  0  0  0  0
  2 15  2  0  0  0  0
  5 15  1  0  0  0  0
  2 19  1  0  0  0  0
  5  6  1  0  0  0  0
  6 18  1  0  0  0  0
  4  5  2  0  0  0  0
  3 19  2  0  0  0  0
 14 18  1  0  0  0  0
 13 14  1  0  0  0  0
  3  4  1  0  0  0  0
 13 16  2  0  0  0  0
 16 17  1  0  0  0  0
 12 13  1  0  0  0  0
 10 17  2  0  0  0  0
 11 12  2  0  0  0  0
 10 11  1  0  0  0  0
  9 10  1  0  0  0  0
  8  9  1  0  0  0  0
  8 21  2  0  0  0  0
  8 20  1  0  0  0  0
  1 24  1  0  0  0  0
  3 25  1  0  0  0  0
  4 26  1  0  0  0  0
  7 27  1  0  0  0  0
  9 28  1  0  0  0  0
  9 29  1  0  0  0  0
 11 30  1  0  0  0  0
 12 31  1  0  0  0  0
 14 32  1  0  0  0  0
 14 33  1  0  0  0  0
 16 34  1  0  0  0  0
 17 35  1  0  0  0  0
 18 36  1  0  0  0  0
 20 37  1  0  0  0  0
M  END
> <OPENEYE_ISO_SMILES>
c1cc(ccc1CC(=O)O)CNC(=O)c2ccnc3c2scc3

> <OPENEYE_INCHI>
InChI=1S/C17H14N2O3S/c20-15(21)9-11-1-3-12(4-2-11)10-19-17(22)13-5-7-18-14-6-8-23-16(13)14/h1-8H,9-10H2,(H,19,22)(H,20,21)

> <OPENEYE_INCHIKEY>
CLXWTDODTCGGCR-UHFFFAOYSA-N

> <FORMULA>
C17H14N2O3S

$$$$
