QZO
  -OEChem-02242320033D

 39 43  0     1  0  0  0  0  0999 V2000
    0.8360    0.5490    0.4850 N   0  0  1  0  0  0  0  0  0  0  0  0
    2.1550    1.1750    0.6370 C   0  0  0  0  0  0  0  0  0  0  0  0
    3.2200    0.1060    0.8760 C   0  0  1  0  0  0  0  0  0  0  0  0
   -0.7630    3.7040   -0.0200 C   0  0  0  0  0  0  0  0  0  0  0  0
   -2.4370    2.1260   -0.1440 C   0  0  0  0  0  0  0  0  0  0  0  0
   -1.8070   -1.4820    0.2400 C   0  0  0  0  0  0  0  0  0  0  0  0
    5.7590   -1.6850    0.3850 O   0  0  0  0  0  0  0  0  0  0  0  0
   -2.7460   -2.4890    0.1810 C   0  0  0  0  0  0  0  0  0  0  0  0
   -4.0820   -2.1850   -0.0440 C   0  0  0  0  0  0  0  0  0  0  0  0
   -4.4850   -0.8750   -0.2090 C   0  0  0  0  0  0  0  0  0  0  0  0
   -3.5500    0.1530   -0.1520 C   0  0  0  0  0  0  0  0  0  0  0  0
   -2.2000   -0.1570    0.0750 C   0  0  0  0  0  0  0  0  0  0  0  0
   -1.4790    1.1260    0.0800 C   0  0  0  0  0  0  0  0  0  0  0  0
   -0.1420    1.5000    0.2550 C   0  0  0  0  0  0  0  0  0  0  0  0
    0.8660   -0.4490   -0.5970 C   0  0  0  0  0  0  0  0  0  0  0  0
    1.5770   -1.7030   -0.0850 C   0  0  0  0  0  0  0  0  0  0  0  0
    2.9580   -1.3320    0.4450 C   0  0  1  0  0  0  0  0  0  0  0  0
    3.8870   -0.4750   -0.3800 C   0  0  2  0  0  0  0  0  0  0  0  0
    5.3610   -0.7810   -0.3120 C   0  0  0  0  0  0  0  0  0  0  0  0
    6.2320   -0.0500   -1.0250 O   0  0  0  0  0  0  0  0  0  0  0  0
   -4.9950   -3.1790   -0.1010 F   0  0  0  0  0  0  0  0  0  0  0  0
   -3.6660    1.5280   -0.2790 N   0  0  0  0  0  0  0  0  0  0  0  0
   -2.0320    3.3950   -0.1850 N   0  0  0  0  0  0  0  0  0  0  0  0
    0.1680    2.7940    0.1920 N   0  0  0  0  0  0  0  0  0  0  0  0
    2.3970    1.7310   -0.2690 H   0  0  0  0  0  0  0  0  0  0  0  0
    2.1340    1.8600    1.4840 H   0  0  0  0  0  0  0  0  0  0  0  0
    3.8500    0.2600    1.7520 H   0  0  0  0  0  0  0  0  0  0  0  0
   -0.4720    4.7430   -0.0640 H   0  0  0  0  0  0  0  0  0  0  0  0
   -0.7680   -1.7210    0.4150 H   0  0  0  0  0  0  0  0  0  0  0  0
   -2.4420   -3.5170    0.3090 H   0  0  0  0  0  0  0  0  0  0  0  0
   -5.5260   -0.6480   -0.3840 H   0  0  0  0  0  0  0  0  0  0  0  0
   -0.1530   -0.7000   -0.8910 H   0  0  0  0  0  0  0  0  0  0  0  0
    1.4040   -0.0430   -1.4540 H   0  0  0  0  0  0  0  0  0  0  0  0
    0.9830   -2.1580    0.7070 H   0  0  0  0  0  0  0  0  0  0  0  0
    1.6920   -2.4130   -0.9040 H   0  0  0  0  0  0  0  0  0  0  0  0
    3.4450   -2.1040    1.0410 H   0  0  0  0  0  0  0  0  0  0  0  0
    3.5230   -0.1230   -1.3450 H   0  0  0  0  0  0  0  0  0  0  0  0
    7.1670   -0.2840   -0.9490 H   0  0  0  0  0  0  0  0  0  0  0  0
   -4.4970    2.0000   -0.4410 H   0  0  0  0  0  0  0  0  0  0  0  0
 19 20  1  0  0  0  0
 18 19  1  0  0  0  0
 17 18  1  0  0  0  0
 16 17  1  0  0  0  0
 15 16  1  0  0  0  0
  1 15  1  0  0  0  0
  1 14  1  0  0  0  0
 13 14  2  0  0  0  0
 12 13  1  0  0  0  0
 11 12  1  0  0  0  0
 10 11  2  0  0  0  0
  9 10  1  0  0  0  0
  8  9  2  0  0  0  0
  6  8  1  0  0  0  0
  9 21  1  0  0  0  0
 11 22  1  0  0  0  0
  5 22  1  0  0  0  0
  5 23  2  0  0  0  0
  4 23  1  0  0  0  0
  4 24  2  0  0  0  0
  1  2  1  0  0  0  0
  2  3  1  0  0  0  0
  7 19  2  0  0  0  0
  3 18  1  0  0  0  0
  3 17  1  0  0  0  0
 14 24  1  0  0  0  0
  5 13  1  0  0  0  0
  6 12  2  0  0  0  0
  2 25  1  0  0  0  0
  2 26  1  0  0  0  0
  3 27  1  0  0  0  0
  4 28  1  0  0  0  0
  6 29  1  0  0  0  0
  8 30  1  0  0  0  0
 10 31  1  0  0  0  0
 15 32  1  0  0  0  0
 15 33  1  0  0  0  0
 16 34  1  0  0  0  0
 16 35  1  0  0  0  0
 17 36  1  0  0  0  0
 18 37  1  0  0  0  0
 20 38  1  0  0  0  0
 22 39  1  0  0  0  0
M  END
> <OPENEYE_ISO_SMILES>
c1cc2c(cc1F)[nH]c3c2c(ncn3)[N@]4CC[C@@H]5[C@H](C4)[C@H]5C(=O)O

> <OPENEYE_INCHI>
InChI=1S/C17H15FN4O2/c18-8-1-2-10-12(5-8)21-15-14(10)16(20-7-19-15)22-4-3-9-11(6-22)13(9)17(23)24/h1-2,5,7,9,11,13H,3-4,6H2,(H,23,24)(H,19,20,21)/t9-,11+,13+/m1/s1

> <OPENEYE_INCHIKEY>
FZCZCOHJHKTFMC-CDMKHQONSA-N

> <FORMULA>
C17H15FN4O2

$$$$
