QZX
  -OEChem-02242320033D

 39 43  0     1  0  0  0  0  0999 V2000
    4.9450    0.9980   -0.7020 C   0  0  0  0  0  0  0  0  0  0  0  0
    3.5360    0.6060   -0.3390 C   0  0  2  0  0  0  0  0  0  0  0  0
    3.0880    0.8310    1.1130 C   0  0  2  0  0  0  0  0  0  0  0  0
    5.3860    0.8280   -1.9580 O   0  0  0  0  0  0  0  0  0  0  0  0
    5.6760    1.4690    0.1370 O   0  0  0  0  0  0  0  0  0  0  0  0
   -4.2440    1.1540   -0.3070 C   0  0  0  0  0  0  0  0  0  0  0  0
   -3.7110    2.4200   -0.1610 C   0  0  0  0  0  0  0  0  0  0  0  0
   -2.3470    2.5930    0.0290 C   0  0  0  0  0  0  0  0  0  0  0  0
   -1.5090    1.4990    0.0740 C   0  0  0  0  0  0  0  0  0  0  0  0
   -2.5000   -2.0330   -0.2550 C   0  0  0  0  0  0  0  0  0  0  0  0
   -0.9860   -3.7660   -0.1530 C   0  0  0  0  0  0  0  0  0  0  0  0
    2.1820   -1.5300    0.3960 C   0  0  0  0  0  0  0  0  0  0  0  0
    3.3540   -0.5800    0.6010 C   0  0  1  0  0  0  0  0  0  0  0  0
    1.6450    1.3020    1.3050 C   0  0  0  0  0  0  0  0  0  0  0  0
    0.7200    0.0900    1.4240 C   0  0  0  0  0  0  0  0  0  0  0  0
   -0.1430   -1.6320    0.0700 C   0  0  0  0  0  0  0  0  0  0  0  0
   -1.4420   -1.1290   -0.0700 C   0  0  0  0  0  0  0  0  0  0  0  0
   -2.0330    0.2180   -0.0730 C   0  0  0  0  0  0  0  0  0  0  0  0
   -3.4140    0.0400   -0.2600 C   0  0  0  0  0  0  0  0  0  0  0  0
   -4.5240    3.4980   -0.2030 F   0  0  0  0  0  0  0  0  0  0  0  0
    0.9300   -0.7780    0.2540 N   0  0  2  0  0  0  0  0  0  0  0  0
   -3.6670   -1.3180   -0.3660 N   0  0  0  0  0  0  0  0  0  0  0  0
   -2.2220   -3.3360   -0.2890 N   0  0  0  0  0  0  0  0  0  0  0  0
    0.0360   -2.9500    0.0220 N   0  0  0  0  0  0  0  0  0  0  0  0
    2.7910    0.7470   -1.1230 H   0  0  0  0  0  0  0  0  0  0  0  0
    3.8170    1.2570    1.8030 H   0  0  0  0  0  0  0  0  0  0  0  0
    6.2970    1.0940   -2.1430 H   0  0  0  0  0  0  0  0  0  0  0  0
   -5.3060    1.0300   -0.4540 H   0  0  0  0  0  0  0  0  0  0  0  0
   -1.9410    3.5870    0.1420 H   0  0  0  0  0  0  0  0  0  0  0  0
   -0.4480    1.6360    0.2220 H   0  0  0  0  0  0  0  0  0  0  0  0
   -0.8000   -4.8290   -0.1860 H   0  0  0  0  0  0  0  0  0  0  0  0
    2.3510   -2.1210   -0.5050 H   0  0  0  0  0  0  0  0  0  0  0  0
    2.1040   -2.1960    1.2550 H   0  0  0  0  0  0  0  0  0  0  0  0
    4.2670   -1.0570    0.9560 H   0  0  0  0  0  0  0  0  0  0  0  0
    1.5770    1.9020    2.2130 H   0  0  0  0  0  0  0  0  0  0  0  0
    1.3440    1.9060    0.4490 H   0  0  0  0  0  0  0  0  0  0  0  0
    0.9540   -0.4610    2.3350 H   0  0  0  0  0  0  0  0  0  0  0  0
   -0.3180    0.4230    1.4510 H   0  0  0  0  0  0  0  0  0  0  0  0
   -4.5450   -1.7080   -0.5000 H   0  0  0  0  0  0  0  0  0  0  0  0
  1  4  1  0  0  0  0
  1  2  1  0  0  0  0
  2  3  1  0  0  0  0
  3 14  1  0  0  0  0
 14 15  1  0  0  0  0
 15 21  1  0  0  0  0
 16 21  1  0  0  0  0
 16 17  2  0  0  0  0
 17 18  1  0  0  0  0
 18 19  1  0  0  0  0
  6 19  2  0  0  0  0
  6  7  1  0  0  0  0
  7  8  2  0  0  0  0
  8  9  1  0  0  0  0
  7 20  1  0  0  0  0
 19 22  1  0  0  0  0
 10 22  1  0  0  0  0
 10 23  2  0  0  0  0
 11 23  1  0  0  0  0
 11 24  2  0  0  0  0
 12 21  1  0  0  0  0
 12 13  1  0  0  0  0
  1  5  2  0  0  0  0
  2 13  1  0  0  0  0
  3 13  1  0  0  0  0
 16 24  1  0  0  0  0
 10 17  1  0  0  0  0
  9 18  2  0  0  0  0
  2 25  1  0  0  0  0
  3 26  1  0  0  0  0
  4 27  1  0  0  0  0
  6 28  1  0  0  0  0
  8 29  1  0  0  0  0
  9 30  1  0  0  0  0
 11 31  1  0  0  0  0
 12 32  1  0  0  0  0
 12 33  1  0  0  0  0
 13 34  1  0  0  0  0
 14 35  1  0  0  0  0
 14 36  1  0  0  0  0
 15 37  1  0  0  0  0
 15 38  1  0  0  0  0
 22 39  1  0  0  0  0
M  END
> <OPENEYE_ISO_SMILES>
c1cc2c(cc1F)[nH]c3c2c(ncn3)[N@]4CC[C@H]5[C@@H](C4)[C@@H]5C(=O)O

> <OPENEYE_INCHI>
InChI=1S/C17H15FN4O2/c18-8-1-2-10-12(5-8)21-15-14(10)16(20-7-19-15)22-4-3-9-11(6-22)13(9)17(23)24/h1-2,5,7,9,11,13H,3-4,6H2,(H,23,24)(H,19,20,21)/t9-,11+,13+/m0/s1

> <OPENEYE_INCHIKEY>
FZCZCOHJHKTFMC-UFGOTCBOSA-N

> <FORMULA>
C17H15FN4O2

$$$$
