@<TRIPOS>MOLECULE
/home/pku/3cl/gett_pdb/5RUF/5RUF_mol2/ligand/5RUF_54T.pdb
 16 17 0 0 0
SMALL
GASTEIGER

@<TRIPOS>ATOM
      1  N1       -50.3770  -28.9390    6.2400 N.ar  201  54T201     -0.2251
      2  C4       -47.0360  -29.4480    4.7310 C.ar  201  54T201     -0.0275
      3  C5       -47.3540  -29.3260    3.3800 C.ar  201  54T201      0.0422
      4  C6       -49.8560  -29.1020    7.4820 C.ar  201  54T201      0.1566
      5 CL        -46.1320  -29.4690    2.0720 Cl    201  54T201     -0.0835
      6  C        -48.6550  -29.0640    2.9850 C.ar  201  54T201     -0.0413
      7  C3       -48.0670  -29.3220    5.6790 C.ar  201  54T201      0.0421
      8  S        -48.2090  -29.4120    7.3430 S.2   201  54T201     -0.0526
      9  N        -50.6640  -29.0390    8.6780 N.pl3 201  54T201     -0.3375
     10  C2       -49.3530  -29.0590    5.2540 C.ar  201  54T201      0.0803
     11  C1       -49.6650  -28.9210    3.8960 C.ar  201  54T201     -0.0338
     12  H1       -46.1670  -29.6460    4.9980 H     201  54T201      0.0644
     13  H2       -48.7620  -28.9120    2.0890 H     201  54T201      0.0633
     14  H3       -51.4580  -29.3680    8.6780 H     201  54T201      0.1442
     15  H4       -50.3510  -28.6720    9.3900 H     201  54T201      0.1442
     16  H5       -50.5320  -28.7240    3.6220 H     201  54T201      0.0639
@<TRIPOS>BOND
     1     5     3    1
     2    13     6    1
     3     6     3   ar
     4     6    11   ar
     5     3     2   ar
     6    16    11    1
     7    11    10   ar
     8     2    12    1
     9     2     7   ar
    10    10     7   ar
    11    10     1   ar
    12     7     8   ar
    13     1     4   ar
    14     8     4   ar
    15     4     9    1
    16     9    14    1
    17     9    15    1
