TLD
  -OEChem-02242320043D

 17 17  0     0  0  0  0  0  0999 V2000
    0.4880   -1.6980   -0.0050 C   0  0  0  0  0  0  0  0  0  0  0  0
   -0.5040   -0.7290   -0.0190 C   0  0  0  0  0  0  0  0  0  0  0  0
   -0.1530    0.6220   -0.0210 C   0  0  0  0  0  0  0  0  0  0  0  0
    1.1850    0.9870   -0.0090 C   0  0  0  0  0  0  0  0  0  0  0  0
    2.1670    0.0130    0.0040 C   0  0  0  0  0  0  0  0  0  0  0  0
    1.8190   -1.3250    0.0060 C   0  0  0  0  0  0  0  0  0  0  0  0
    3.6200    0.4120    0.0160 C   0  0  0  0  0  0  0  0  0  0  0  0
   -2.2010   -1.2020   -0.0340 S   0  0  0  0  0  0  0  0  0  0  0  0
   -1.4070    1.8600   -0.0380 S   0  0  0  0  0  0  0  0  0  0  0  0
    0.2200   -2.7450    0.0010 H   0  0  0  0  0  0  0  0  0  0  0  0
    1.4600    2.0310   -0.0110 H   0  0  0  0  0  0  0  0  0  0  0  0
    2.5900   -2.0810    0.0170 H   0  0  0  0  0  0  0  0  0  0  0  0
    3.9610    0.5120    1.0470 H   0  0  0  0  0  0  0  0  0  0  0  0
    4.2110   -0.3520   -0.4890 H   0  0  0  0  0  0  0  0  0  0  0  0
    3.7400    1.3640   -0.5010 H   0  0  0  0  0  0  0  0  0  0  0  0
   -2.5060   -1.2780    1.2740 H   0  0  0  0  0  0  0  0  0  0  0  0
   -1.6350    2.0790    1.2690 H   0  0  0  0  0  0  0  0  0  0  0  0
  1  2  2  0  0  0  0
  1  6  1  0  0  0  0
  2  3  1  0  0  0  0
  2  8  1  0  0  0  0
  3  4  2  0  0  0  0
  3  9  1  0  0  0  0
  4  5  1  0  0  0  0
  5  6  2  0  0  0  0
  5  7  1  0  0  0  0
  1 10  1  0  0  0  0
  4 11  1  0  0  0  0
  6 12  1  0  0  0  0
  7 13  1  0  0  0  0
  7 14  1  0  0  0  0
  7 15  1  0  0  0  0
  8 16  1  0  0  0  0
  9 17  1  0  0  0  0
M  END
> <OPENEYE_ISO_SMILES>
Cc1ccc(c(c1)S)S

> <OPENEYE_INCHI>
InChI=1S/C7H8S2/c1-5-2-3-6(8)7(9)4-5/h2-4,8-9H,1H3

> <OPENEYE_INCHIKEY>
NIAAGQAEVGMHPM-UHFFFAOYSA-N

> <FORMULA>
C7H8S2

$$$$
