@<TRIPOS>MOLECULE
/home/pku/3cl/gett_pdb/5RV2/5RV2_mol2/ligand/5RV2_W7S.pdb
 27 28 0 0 0
SMALL
GASTEIGER

@<TRIPOS>ATOM
      1  C10      -44.3690  -31.2710    0.0260 C.ar  201  W7S201     -0.0571
      2  C15      -47.9710  -29.1440    6.4740 C.ar  201  W7S201      0.0465
      3  C02      -47.3770  -29.1550    2.8410 C.2   201  W7S201      0.2642
      4  C04      -45.3410  -29.5720    1.5610 C.3   201  W7S201      0.0372
      5  C05      -45.3510  -30.9740    0.9500 C.ar  201  W7S201     -0.0303
      6  C06      -46.2950  -31.9300    1.2510 C.ar  201  W7S201     -0.0571
      7  C07      -46.2370  -33.1650    0.6110 C.ar  201  W7S201     -0.0615
      8  C08      -45.2750  -33.4510   -0.3170 C.ar  201  W7S201     -0.0617
      9  C09      -44.3380  -32.4880   -0.6210 C.ar  201  W7S201     -0.0615
     10  C11      -48.0620  -29.1010    4.2130 C.ar  201  W7S201      0.1433
     11  C12      -49.4390  -29.0730    4.2840 C.ar  201  W7S201      0.0580
     12  C14      -49.3590  -29.0940    6.5460 C.ar  201  W7S201      0.0457
     13  N03      -45.9800  -29.4600    2.8350 N.am  201  W7S201     -0.3059
     14  N13      -50.0630  -29.0660    5.4240 N.ar  201  W7S201     -0.2595
     15  N16      -47.3620  -29.1360    5.3110 N.ar  201  W7S201     -0.2473
     16  O01      -47.9660  -29.0630    1.8270 O.2   201  W7S201     -0.2685
     17 H101      -43.7450  -30.6210   -0.1990 H     201  W7S201      0.0621
     18 H151      -47.4700  -29.1540    7.2560 H     201  W7S201      0.0845
     19 H041      -45.7610  -28.9840    0.9610 H     201  W7S201      0.0512
     20 H042      -44.4470  -29.3020    1.6580 H     201  W7S201      0.0512
     21 H061      -46.9650  -31.7510    1.8690 H     201  W7S201      0.0621
     22 H071      -46.8720  -33.8110    0.8170 H     201  W7S201      0.0618
     23 H081      -45.2440  -34.2860   -0.7240 H     201  W7S201      0.0618
     24 H091      -43.6650  -32.6710   -1.2350 H     201  W7S201      0.0618
     25 H121      -49.9370  -29.0530    3.5050 H     201  W7S201      0.0853
     26 H141      -49.7870  -29.0800    7.3700 H     201  W7S201      0.0845
     27 H031      -45.5370  -29.5650    3.5740 H     201  W7S201      0.1494
@<TRIPOS>BOND
     1    24     9    1
     2    23     8    1
     3     9     8   ar
     4     9     1   ar
     5     8     7   ar
     6    17     1    1
     7     1     5   ar
     8     7    22    1
     9     7     6   ar
    10     5     6   ar
    11     5     4    1
    12    19     4    1
    13     6    21    1
    14     4    20    1
    15     4    13    1
    16    16     3    2
    17    13     3   am
    18    13    27    1
    19     3    10    1
    20    25    11    1
    21    10    11   ar
    22    10    15   ar
    23    11    14   ar
    24    15     2   ar
    25    14    12   ar
    26     2    12   ar
    27     2    18    1
    28    12    26    1
