@<TRIPOS>MOLECULE
/home/pku/3cl/gett_pdb/5RVL/5RVL_mol2/ligand/5RVL_BVF.pdb
 16 16 0 0 0
SMALL
GASTEIGER

@<TRIPOS>ATOM
      1  C1        12.4390   23.4240    7.9180 C.ar  201  BVF201      0.0299
      2  C2        12.3510   24.5330    8.7440 C.ar  201  BVF201     -0.0405
      3  C3        11.5010   24.4720    9.8390 C.ar  201  BVF201     -0.0458
      4  C4        10.7720   23.3140   10.0710 C.ar  201  BVF201     -0.0192
      5  C5        10.9250   22.2540    9.1910 C.ar  201  BVF201      0.1163
      6  N6        11.7390   22.3320    8.1560 N.ar  201  BVF201     -0.2407
      7  N7        10.1770   21.0310    9.4170 N.pl3 201  BVF201     -0.3431
      8  C8        11.3680   25.6670   10.7790 C.3   201  BVF201     -0.0396
      9  H1        13.0040   23.4500    7.1800 H     201  BVF201      0.0830
     10  H2        12.8470   25.2990    8.5680 H     201  BVF201      0.0635
     11  H4        10.1980   23.2500   10.8000 H     201  BVF201      0.0654
     12 HN71        9.9940   20.7810   10.2190 H     201  BVF201      0.1437
     13 HN72        9.9170   20.5560    8.7490 H     201  BVF201      0.1437
     14  H81       11.9950   25.5720   11.5130 H     201  BVF201      0.0278
     15  H82       10.4640   25.7040   11.1280 H     201  BVF201      0.0278
     16  H83       11.5610   26.4840   10.2930 H     201  BVF201      0.0278
@<TRIPOS>BOND
     1     9     1    1
     2     1     6   ar
     3     1     2   ar
     4     6     5   ar
     5    10     2    1
     6     2     3   ar
     7    13     7    1
     8     5     7    1
     9     5     4   ar
    10     7    12    1
    11     3     4   ar
    12     3     8    1
    13     4    11    1
    14    16     8    1
    15     8    15    1
    16     8    14    1
