@<TRIPOS>MOLECULE
/home/pku/3cl/gett_pdb/5SQ3/5SQ3_mol2/ligand/5SQ3_QK6.pdb
 38 41 0 0 0
SMALL
GASTEIGER

@<TRIPOS>ATOM
      1  C17      -46.2700  -29.2390    6.1000 C.ar  201  QK6201      0.1442
      2  C14      -48.6490  -28.8280    3.3770 C.ar  201  QK6201     -0.0491
      3  C13      -50.0330  -28.8100    3.5050 C.ar  201  QK6201     -0.0257
      4  C12      -50.6260  -28.9610    4.7530 C.ar  201  QK6201      0.1254
      5  C11      -49.8260  -29.1250    5.8690 C.ar  201  QK6201     -0.0025
      6  C10      -48.4360  -29.1400    5.7460 C.ar  201  QK6201      0.0515
      7  C19      -43.9610  -29.2670    5.8670 C.ar  201  QK6201      0.1204
      8  C02      -43.1680  -26.0800   -0.8870 C.2   201  QK6201      0.0896
      9  C03      -43.1610  -27.4880   -0.2890 C.3   201  QK6201      0.0238
     10  C04      -44.4160  -27.7660    0.5340 C.3   201  QK6201      0.0802
     11  C05      -44.0570  -28.3150    1.9240 C.3   201  QK6201      0.0402
     12  C07      -45.2410  -29.0090    3.9840 C.ar  201  QK6201      0.1345
     13  C08      -46.4240  -29.0620    4.7410 C.ar  201  QK6201      0.0663
     14  C09      -47.8380  -28.9950    4.5110 C.ar  201  QK6201      0.0124
     15  C21      -46.0040  -29.7360    1.7530 C.3   201  QK6201      0.0371
     16  C22      -46.4300  -29.0540    0.5330 C.3   201  QK6201      0.0638
     17  F15      -51.9840  -28.9450    4.8820 F     201  QK6201     -0.2054
     18  N06      -45.3010  -28.8000    2.5600 N.pl3 201  QK6201     -0.3099
     19  N16      -47.4750  -29.2830    6.6640 N.ar  201  QK6201     -0.3389
     20  N18      -45.0390  -29.3390    6.6180 N.ar  201  QK6201     -0.2178
     21  N20      -44.0510  -29.0950    4.5610 N.ar  201  QK6201     -0.2200
     22  O01      -42.1030  -25.5780   -1.3260 O.co2 201  QK6201     -0.8475
     23  O23      -45.2590  -28.6570   -0.1880 O.3   201  QK6201     -0.3731
     24  O24      -44.2350  -25.4170   -0.9540 O.co2 201  QK6201     -0.3089
     25 H141      -48.1940  -28.7150    2.3970 H     201  QK6201      0.0625
     26 H131      -50.6490  -28.6880    2.6290 H     201  QK6201      0.0646
     27 H111      -50.2540  -29.2420    6.8480 H     201  QK6201      0.0667
     28 H191      -42.9820  -29.3470    6.3260 H     201  QK6201      0.1048
     29 H031      -43.0970  -28.2120   -1.1010 H     201  QK6201      0.0358
     30 H032      -42.2970  -27.5960    0.3620 H     201  QK6201      0.0358
     31 H041      -44.9530  -26.8390    0.7130 H     201  QK6201      0.0615
     32 H051      -43.6540  -27.5060    2.5200 H     201  QK6201      0.0490
     33 H052      -43.3230  -29.1240    1.8580 H     201  QK6201      0.0490
     34 H211      -46.8300  -30.2000    2.2830 H     201  QK6201      0.0487
     35 H212      -45.3190  -30.5220    1.4720 H     201  QK6201      0.0487
     36 H222      -47.0260  -28.1770    0.7830 H     201  QK6201      0.0575
     37 H221      -47.0200  -29.7200   -0.0780 H     201  QK6201      0.0575
     38 H161      -47.6240  -29.4080    7.6410 H     201  QK6201      0.1673
@<TRIPOS>UNITY_ATOM_ATTR
22 1
charge -1
@<TRIPOS>BOND
     1    22     8   ar
     2    29     9    1
     3    24     8   ar
     4     8     9    1
     5     9    30    1
     6     9    10    1
     7    23    16    1
     8    23    10    1
     9    37    16    1
    10    16    36    1
    11    16    15    1
    12    10    31    1
    13    10    11    1
    14    35    15    1
    15    15    34    1
    16    15    18    1
    17    33    11    1
    18    11    32    1
    19    11    18    1
    20    25     2    1
    21    18    12    1
    22    26     3    1
    23     2     3   ar
    24     2    14   ar
    25     3     4   ar
    26    12    21   ar
    27    12    13   ar
    28    14    13   ar
    29    14     6   ar
    30    21     7   ar
    31    13     1   ar
    32     4    17    1
    33     4     5   ar
    34     6     5   ar
    35     6    19   ar
    36     7    28    1
    37     7    20   ar
    38     5    27    1
    39     1    20   ar
    40     1    19   ar
    41    19    38    1
