BOV
  -OEChem-02242320023D

 60 62  0     1  0  0  0  0  0999 V2000
    5.0790   -0.1300   -1.0350 C   0  0  0  0  0  0  0  0  0  0  0  0
    7.5520    1.8570    1.6650 C   0  0  0  0  0  0  0  0  0  0  0  0
    5.4480    0.9980    0.9000 C   0  0  0  0  0  0  0  0  0  0  0  0
   -4.8690    1.2260   -1.4300 C   0  0  2  0  0  0  0  0  0  0  0  0
   -6.4720    3.0060   -1.3220 C   0  0  0  0  0  0  0  0  0  0  0  0
   -6.0420    0.8590   -0.5480 C   0  0  0  0  0  0  0  0  0  0  0  0
   -1.0610   -3.1960   -2.0260 C   0  0  0  0  0  0  0  0  0  0  0  0
   -1.0710   -3.1190   -0.4980 C   0  0  0  0  0  0  0  0  0  0  0  0
   -1.1640   -4.5310    0.0830 C   0  0  0  0  0  0  0  0  0  0  0  0
    0.2180   -2.4520   -0.0120 C   0  0  0  0  0  0  0  0  0  0  0  0
    0.2390   -0.9920   -0.4680 C   0  0  2  0  0  0  0  0  0  0  0  0
    1.5050   -0.3730   -0.0670 N   0  0  0  0  0  0  0  0  0  0  0  0
    2.6080   -0.5440   -0.8230 C   0  0  0  0  0  0  0  0  0  0  0  0
    2.5320   -1.1330   -1.8850 O   0  0  0  0  0  0  0  0  0  0  0  0
    3.9020   -0.0210   -0.3640 C   0  0  0  0  0  0  0  0  0  0  0  0
    6.0780    0.5020   -0.2570 C   0  0  0  0  0  0  0  0  0  0  0  0
    7.4570    0.6970   -0.4340 C   0  0  0  0  0  0  0  0  0  0  0  0
    8.0730    0.2270   -1.5410 F   0  0  0  0  0  0  0  0  0  0  0  0
    8.1790    1.3700    0.5260 C   0  0  0  0  0  0  0  0  0  0  0  0
    6.2000    1.6750    1.8560 C   0  0  0  0  0  0  0  0  0  0  0  0
    4.1170    0.6620    0.8180 N   0  0  0  0  0  0  0  0  0  0  0  0
   -0.9070   -0.2490    0.1690 C   0  0  0  0  0  0  0  0  0  0  0  0
   -0.7160    0.4270    1.1580 O   0  0  0  0  0  0  0  0  0  0  0  0
   -2.1440   -0.3360   -0.3590 N   0  0  0  0  0  0  0  0  0  0  0  0
   -3.1840    0.4450    0.1610 N   0  0  0  0  0  0  0  0  0  0  0  0
   -3.6600    1.6170   -0.5780 C   0  0  0  0  0  0  0  0  0  0  0  0
   -5.3730    2.4380   -2.2470 C   0  0  0  0  0  0  0  0  0  0  0  0
   -6.9260    1.8710   -0.5100 N   0  0  0  0  0  0  0  0  0  0  0  0
   -6.1670   -0.1950    0.0390 O   0  0  0  0  0  0  0  0  0  0  0  0
   -3.7470    0.1180    1.3410 C   0  0  0  0  0  0  0  0  0  0  0  0
   -4.6480    0.7940    1.7910 O   0  0  0  0  0  0  0  0  0  0  0  0
   -3.2570   -1.0880    2.1010 C   0  0  0  0  0  0  0  0  0  0  0  0
   -3.9900   -1.2210    3.2860 F   0  0  0  0  0  0  0  0  0  0  0  0
    5.2270   -0.6160   -1.9870 H   0  0  0  0  0  0  0  0  0  0  0  0
    8.1300    2.3840    2.4100 H   0  0  0  0  0  0  0  0  0  0  0  0
   -4.6160    0.3980   -2.0930 H   0  0  0  0  0  0  0  0  0  0  0  0
   -6.0600    3.7870   -0.6820 H   0  0  0  0  0  0  0  0  0  0  0  0
   -7.2980    3.4010   -1.9140 H   0  0  0  0  0  0  0  0  0  0  0  0
   -0.1500   -3.6940   -2.3590 H   0  0  0  0  0  0  0  0  0  0  0  0
   -1.9290   -3.7590   -2.3670 H   0  0  0  0  0  0  0  0  0  0  0  0
   -1.0960   -2.1880   -2.4400 H   0  0  0  0  0  0  0  0  0  0  0  0
   -1.9290   -2.5330   -0.1690 H   0  0  0  0  0  0  0  0  0  0  0  0
   -0.3050   -5.1170   -0.2460 H   0  0  0  0  0  0  0  0  0  0  0  0
   -1.1710   -4.4770    1.1720 H   0  0  0  0  0  0  0  0  0  0  0  0
   -2.0820   -5.0070   -0.2630 H   0  0  0  0  0  0  0  0  0  0  0  0
    0.2600   -2.4930    1.0760 H   0  0  0  0  0  0  0  0  0  0  0  0
    1.0780   -2.9760   -0.4290 H   0  0  0  0  0  0  0  0  0  0  0  0
    0.1410   -0.9480   -1.5530 H   0  0  0  0  0  0  0  0  0  0  0  0
    1.5500    0.1590    0.7420 H   0  0  0  0  0  0  0  0  0  0  0  0
    9.2400    1.5210    0.3920 H   0  0  0  0  0  0  0  0  0  0  0  0
    5.7240    2.0590    2.7460 H   0  0  0  0  0  0  0  0  0  0  0  0
    3.4390    0.8730    1.4800 H   0  0  0  0  0  0  0  0  0  0  0  0
   -2.3130   -0.9400   -1.0990 H   0  0  0  0  0  0  0  0  0  0  0  0
   -2.8640    1.9870   -1.2240 H   0  0  0  0  0  0  0  0  0  0  0  0
   -3.9480    2.3970    0.1260 H   0  0  0  0  0  0  0  0  0  0  0  0
   -4.5760    3.1660   -2.3980 H   0  0  0  0  0  0  0  0  0  0  0  0
   -5.7930    2.1180   -3.2010 H   0  0  0  0  0  0  0  0  0  0  0  0
   -7.7570    1.8530   -0.0100 H   0  0  0  0  0  0  0  0  0  0  0  0
   -3.3890   -1.9810    1.4900 H   0  0  0  0  0  0  0  0  0  0  0  0
   -2.2010   -0.9630    2.3390 H   0  0  0  0  0  0  0  0  0  0  0  0
 32 33  1  0  0  0  0
 30 32  1  0  0  0  0
 30 31  2  0  0  0  0
 25 30  1  0  0  0  0
 24 25  1  0  0  0  0
 25 26  1  0  0  0  0
  8  9  1  0  0  0  0
 22 24  1  0  0  0  0
  4 26  1  0  0  0  0
  8 10  1  0  0  0  0
 10 11  1  0  0  0  0
  7  8  1  0  0  0  0
 22 23  2  0  0  0  0
 11 22  1  0  0  0  0
 11 12  1  0  0  0  0
  4 27  1  0  0  0  0
  5 27  1  0  0  0  0
  4  6  1  0  0  0  0
  6 29  2  0  0  0  0
  6 28  1  0  0  0  0
  5 28  1  0  0  0  0
 12 13  1  0  0  0  0
 13 14  2  0  0  0  0
 13 15  1  0  0  0  0
  1 15  2  0  0  0  0
 15 21  1  0  0  0  0
  1 16  1  0  0  0  0
  3 21  1  0  0  0  0
  3 16  2  0  0  0  0
 16 17  1  0  0  0  0
  3 20  1  0  0  0  0
 17 18  1  0  0  0  0
 17 19  2  0  0  0  0
  2 20  2  0  0  0  0
  2 19  1  0  0  0  0
  1 34  1  0  0  0  0
  2 35  1  0  0  0  0
  4 36  1  0  0  0  0
  5 37  1  0  0  0  0
  5 38  1  0  0  0  0
  7 39  1  0  0  0  0
  7 40  1  0  0  0  0
  7 41  1  0  0  0  0
  8 42  1  0  0  0  0
  9 43  1  0  0  0  0
  9 44  1  0  0  0  0
  9 45  1  0  0  0  0
 10 46  1  0  0  0  0
 10 47  1  0  0  0  0
 11 48  1  0  0  0  0
 12 49  1  0  0  0  0
 19 50  1  0  0  0  0
 20 51  1  0  0  0  0
 21 52  1  0  0  0  0
 24 53  1  0  0  0  0
 26 54  1  0  0  0  0
 26 55  1  0  0  0  0
 27 56  1  0  0  0  0
 27 57  1  0  0  0  0
 28 58  1  0  0  0  0
 32 59  1  0  0  0  0
 32 60  1  0  0  0  0
M  END
> <OPENEYE_ISO_SMILES>
CC(C)C[C@@H](C(=O)NN(C[C@@H]1CCNC1=O)C(=O)CF)NC(=O)c2cc3c([nH]2)cccc3F

> <OPENEYE_INCHI>
InChI=1S/C22H27F2N5O4/c1-12(2)8-17(27-21(32)18-9-14-15(24)4-3-5-16(14)26-18)22(33)28-29(19(30)10-23)11-13-6-7-25-20(13)31/h3-5,9,12-13,17,26H,6-8,10-11H2,1-2H3,(H,25,31)(H,27,32)(H,28,33)/t13-,17-/m0/s1

> <OPENEYE_INCHIKEY>
MRCDFPNCOHGYQJ-GUYCJALGSA-N

> <FORMULA>
C22H27F2N5O4

$$$$
