@<TRIPOS>MOLECULE
/home/pku/3cl/gett_pdb/7M8M/7M8M_mol2/ligand/7M8M_YSG.pdb
 51 54 0 0 0
SMALL
GASTEIGER

@<TRIPOS>ATOM
      1  N1       -24.4350   -4.1080  -22.1900 N.ar  401  YSG401     -0.2746
      2  C2       -21.7780   -4.4260  -27.7080 C.ar  401  YSG401      0.0477
      3  N3       -20.2220   -4.8990  -25.9700 N.ar  401  YSG401     -0.2816
      4  C4       -22.9430   -3.1210  -29.5000 C.ar  401  YSG401     -0.0353
      5  C5       -23.2370   -2.8310  -30.8300 C.ar  401  YSG401      0.0450
      6  C6       -22.6690   -3.5780  -31.8450 C.ar  401  YSG401     -0.0016
      7  C8       -20.0370   -5.9150  -32.4890 C.3   401  YSG401      0.0893
      8  C1       -20.4810   -4.6810  -27.2760 C.ar  401  YSG401      0.2635
      9  C10      -19.0980   -5.3180  -34.7110 C.3   401  YSG401     -0.0622
     10  C11      -21.5040   -4.9190  -30.2190 C.ar  401  YSG401     -0.0120
     11  C12      -22.7990   -4.3700  -26.7610 C.ar  401  YSG401     -0.0395
     12  C13      -22.5040   -4.5730  -25.4180 C.ar  401  YSG401      0.0060
     13  C14      -23.6060   -4.5600  -24.3560 C.ar  401  YSG401      0.0640
     14  C15      -23.4270   -4.0650  -23.0670 C.ar  401  YSG401      0.2617
     15  C16      -24.8440   -5.1080  -24.6730 C.ar  401  YSG401      0.0193
     16  C17      -25.6120   -4.6320  -22.5260 C.ar  401  YSG401      0.3267
     17  C18      -21.1950   -4.8460  -25.0480 C.ar  401  YSG401      0.0212
     18  C19      -18.8630   -5.1390  -25.5080 C.ar  401  YSG401      0.0675
     19  C20      -18.4150   -6.3770  -25.0780 C.ar  401  YSG401     -0.0348
     20  C21      -17.0950   -6.4950  -24.6480 C.ar  401  YSG401     -0.0416
     21  C22      -16.2610   -5.3790  -24.6480 C.ar  401  YSG401      0.0277
     22  C23      -17.9940   -4.0520  -25.4850 C.ar  401  YSG401      0.0514
     23  C3       -22.0770   -4.1670  -29.1870 C.ar  401  YSG401     -0.0078
     24  C7       -21.8030   -4.6120  -31.5500 C.ar  401  YSG401      0.1225
     25  C9       -19.5890   -6.4670  -33.8390 C.3   401  YSG401     -0.0215
     26  N2       -25.8220   -5.1290  -23.7540 N.ar  401  YSG401     -0.3137
     27  N4       -16.7290   -4.1930  -25.0710 N.ar  401  YSG401     -0.2612
     28  O1       -19.4580   -4.7430  -28.2200 O.2   401  YSG401     -0.2667
     29  O2       -21.2890   -5.3210  -32.6480 O.3   401  YSG401     -0.4919
     30  O3       -22.2310   -3.5050  -22.6420 O.2   401  YSG401     -0.2671
     31  O4       -26.6240   -4.6540  -21.5660 O.2   401  YSG401     -0.2467
     32 CL1       -24.3510   -1.5220  -31.2980 Cl    401  YSG401     -0.0834
     33  H12      -24.3220   -3.7940  -21.3980 H     401  YSG401      0.1734
     34  H1       -23.3250   -2.6160  -28.8190 H     401  YSG401      0.0638
     35  H2       -22.8720   -3.3820  -32.7320 H     401  YSG401      0.0669
     36  H3       -19.3980   -5.2540  -32.1770 H     401  YSG401      0.0696
     37  H4       -20.0960   -6.6370  -31.8430 H     401  YSG401      0.0696
     38  H8       -18.7730   -5.6680  -35.5550 H     401  YSG401      0.0231
     39  H7       -18.3800   -4.8500  -34.2560 H     401  YSG401      0.0231
     40  H9       -19.8300   -4.7030  -34.8770 H     401  YSG401      0.0231
     41  H10      -20.9260   -5.6200  -30.0200 H     401  YSG401      0.0660
     42  H11      -23.6730   -4.1980  -27.0270 H     401  YSG401      0.0632
     43  H13      -24.9950   -5.4590  -25.5210 H     401  YSG401      0.0816
     44  H15      -20.9900   -4.9940  -24.1530 H     401  YSG401      0.0820
     45  H16      -18.9830   -7.1140  -25.0760 H     401  YSG401      0.0639
     46  H17      -16.7710   -7.3180  -24.3610 H     401  YSG401      0.0633
     47  H18      -15.3810   -5.4550  -24.3550 H     401  YSG401      0.0829
     48  H19      -18.2960   -3.2170  -25.7610 H     401  YSG401      0.0851
     49  H5       -18.8690   -7.1040  -33.7070 H     401  YSG401      0.0295
     50  H6       -20.3350   -6.9090  -34.2730 H     401  YSG401      0.0295
     51  H14      -26.5890   -5.4650  -23.9530 H     401  YSG401      0.1698
@<TRIPOS>BOND
     1    38     9    1
     2    40     9    1
     3     9    39    1
     4     9    25    1
     5    50    25    1
     6    25    49    1
     7    25     7    1
     8    35     6    1
     9    29     7    1
    10    29    24    1
    11     7    36    1
    12     7    37    1
    13     6    24   ar
    14     6     5   ar
    15    24    10   ar
    16    32     5    1
    17     5     4   ar
    18    10    41    1
    19    10    23   ar
    20     4    23   ar
    21     4    34    1
    22    23     2    1
    23    28     8    2
    24     2     8   ar
    25     2    11   ar
    26     8     3   ar
    27    42    11    1
    28    11    12   ar
    29     3    18    1
    30     3    17   ar
    31    48    22    1
    32    43    15    1
    33    18    22   ar
    34    18    19   ar
    35    22    27   ar
    36    12    17   ar
    37    12    13    1
    38    19    45    1
    39    19    20   ar
    40    27    21   ar
    41    17    44    1
    42    15    13   ar
    43    15    26   ar
    44    21    20   ar
    45    21    47    1
    46    20    46    1
    47    13    14   ar
    48    51    26    1
    49    26    16   ar
    50    14    30    2
    51    14     1   ar
    52    16     1   ar
    53    16    31    2
    54     1    33    1
