@<TRIPOS>MOLECULE
/home/pku/3cl/gett_pdb/5SP1/5SP1_mol2/ligand/5SP1_WYA.pdb
 35 38 0 0 0
SMALL
GASTEIGER

@<TRIPOS>ATOM
      1  C15      -43.7340  -35.9910   -3.3190 C.ar  201  WYA201     -0.0195
      2  C17      -42.7470  -34.4870   -4.9240 C.ar  201  WYA201      0.1080
      3  C20      -42.3610  -31.9160   -5.6980 C.ar  201  WYA201      0.0481
      4  C22      -43.2630  -33.4500   -4.2110 C.ar  201  WYA201      0.1801
      5  C01      -45.1080  -36.3290   -0.7800 C.3   201  WYA201      0.0025
      6  C03      -45.7980  -33.9250   -0.9730 C.3   201  WYA201      0.0734
      7  C04      -45.4030  -33.5300    0.4380 C.ar  201  WYA201      0.1553
      8  C07      -44.3630  -32.5780    2.1050 C.ar  201  WYA201      0.2260
      9  C08      -43.3120  -31.6710    2.7940 C.ar  201  WYA201      0.2936
     10  C11      -42.4040  -31.0530    0.5710 C.ar  201  WYA201      0.0216
     11  C12      -43.4240  -31.9380   -0.0920 C.ar  201  WYA201      0.0291
     12  C14      -44.2300  -34.8850   -2.6360 C.ar  201  WYA201      0.1239
     13  C16      -42.9830  -35.8260   -4.4780 C.ar  201  WYA201     -0.0294
     14  C19      -41.8400  -32.9780   -6.4330 C.ar  201  WYA201      0.0465
     15  N02      -45.0270  -35.0510   -1.4470 N.pl3 201  WYA201     -0.3108
     16  N05      -45.9800  -33.9400    1.5680 N.ar  201  WYA201     -0.1319
     17  N06      -45.3300  -33.3460    2.6060 N.ar  201  WYA201     -0.1237
     18  N10      -42.3770  -30.9460    1.9870 N.ar  201  WYA201     -0.3247
     19  N13      -44.3900  -32.6800    0.7430 N.ar  201  WYA201     -0.2794
     20  N18      -42.0250  -34.2310   -6.0480 N.ar  201  WYA201     -0.2503
     21  N21      -43.0670  -32.1580   -4.6100 N.ar  201  WYA201     -0.2329
     22  N23      -43.9940  -33.6720   -3.0920 N.ar  201  WYA201     -0.2111
     23  O09      -43.2790  -31.5770    3.9710 O.2   201  WYA201     -0.2638
     24 H151      -43.9040  -36.8420   -2.9930 H     201  WYA201      0.0652
     25 H201      -42.2190  -31.0420   -5.9690 H     201  WYA201      0.0846
     26 H013      -44.2210  -36.6200   -0.5260 H     201  WYA201      0.0428
     27 H012      -45.6650  -36.2470    0.0070 H     201  WYA201      0.0428
     28 H011      -45.5000  -36.9740   -1.3890 H     201  WYA201      0.0428
     29 H031      -46.7290  -34.1740   -0.9640 H     201  WYA201      0.0545
     30 H032      -45.6920  -33.1560   -1.5630 H     201  WYA201      0.0545
     31 H111      -41.7880  -30.5850    0.0580 H     201  WYA201      0.0823
     32 H121      -43.4450  -32.0160   -1.0170 H     201  WYA201      0.0828
     33 H161      -42.6470  -36.5550   -4.9370 H     201  WYA201      0.0641
     34 H191      -41.3430  -32.8060   -7.1890 H     201  WYA201      0.0845
     35 H101      -41.8120  -30.4340    2.3630 H     201  WYA201      0.1685
@<TRIPOS>BOND
     1    34    14    1
     2    14    20   ar
     3    14     3   ar
     4    20     2   ar
     5    25     3    1
     6     3    21   ar
     7    33    13    1
     8     2    13   ar
     9     2     4   ar
    10    21     4   ar
    11    13     1   ar
    12     4    22   ar
    13     1    24    1
    14     1    12   ar
    15    22    12   ar
    16    12    15    1
    17    30     6    1
    18    15     6    1
    19    15     5    1
    20    28     5    1
    21    32    11    1
    22     6    29    1
    23     6     7    1
    24     5    26    1
    25     5    27    1
    26    11    10   ar
    27    11    19   ar
    28    31    10    1
    29     7    19   ar
    30     7    16   ar
    31    10    18   ar
    32    19     8   ar
    33    16    17   ar
    34    18    35    1
    35    18     9   ar
    36     8    17   ar
    37     8     9   ar
    38     9    23    2
