MHW
  -OEChem-02242320033D

 15 15  0     0  0  0  0  0  0999 V2000
    0.4900    1.4220   -0.0090 N   0  0  0  0  0  0  0  0  0  0  0  0
   -0.1470    0.2560    0.0040 C   0  0  0  0  0  0  0  0  0  0  0  0
   -1.6240    0.2260    0.0050 C   0  0  0  0  0  0  0  0  0  0  0  0
   -2.2100   -0.8370    0.0170 O   0  0  0  0  0  0  0  0  0  0  0  0
    0.5720   -0.9450    0.0160 C   0  0  0  0  0  0  0  0  0  0  0  0
   -0.0750   -2.1360    0.0280 O   0  0  0  0  0  0  0  0  0  0  0  0
    1.9650   -0.8960    0.0150 C   0  0  0  0  0  0  0  0  0  0  0  0
    2.5800    0.3430    0.0020 C   0  0  0  0  0  0  0  0  0  0  0  0
    1.8020    1.4910   -0.0100 C   0  0  0  0  0  0  0  0  0  0  0  0
   -2.3200    1.3800   -0.0070 O   0  0  0  0  0  0  0  0  0  0  0  0
    2.2830    2.4580   -0.0220 H   0  0  0  0  0  0  0  0  0  0  0  0
   -3.2850    1.3100   -0.0060 H   0  0  0  0  0  0  0  0  0  0  0  0
   -0.2640   -2.4910   -0.8510 H   0  0  0  0  0  0  0  0  0  0  0  0
    2.5500   -1.8040    0.0240 H   0  0  0  0  0  0  0  0  0  0  0  0
    3.6580    0.4150    0.0010 H   0  0  0  0  0  0  0  0  0  0  0  0
  1  2  2  0  0  0  0
  1  9  1  0  0  0  0
  2  3  1  0  0  0  0
  2  5  1  0  0  0  0
  3  4  2  0  0  0  0
  3 10  1  0  0  0  0
  5  6  1  0  0  0  0
  5  7  2  0  0  0  0
  7  8  1  0  0  0  0
  8  9  2  0  0  0  0
  9 11  1  0  0  0  0
 10 12  1  0  0  0  0
  6 13  1  0  0  0  0
  7 14  1  0  0  0  0
  8 15  1  0  0  0  0
M  END
> <OPENEYE_ISO_SMILES>
c1cc(c(nc1)C(=O)O)O

> <OPENEYE_INCHI>
InChI=1S/C6H5NO3/c8-4-2-1-3-7-5(4)6(9)10/h1-3,8H,(H,9,10)

> <OPENEYE_INCHIKEY>
BRARRAHGNDUELT-UHFFFAOYSA-N

> <FORMULA>
C6H5NO3

$$$$
