@<TRIPOS>MOLECULE
/home/pku/3cl/gett_pdb/5S3X/5S3X_mol2/ligand/5S3X_W2V.pdb
 17 18 0 0 0
SMALL
GASTEIGER

@<TRIPOS>ATOM
      1  C4        -2.4970   13.0660   -3.1180 C.ar  401  W2V401     -0.0041
      2  C5        -3.6500   12.9480   -2.3570 C.ar  401  W2V401      0.0028
      3  C6        -3.8650   13.7840   -1.2690 C.ar  401  W2V401      0.0369
      4  C7        -0.2880   14.1560   -3.6560 C.3   401  W2V401      0.0381
      5  C8         0.6040   15.3210   -3.2020 C.3   401  W2V401      0.0371
      6  C10        1.8350   13.0530   -4.4630 C.3   401  W2V401      0.1537
      7  O3         1.1710   12.7830   -1.4670 O.co2 401  W2V401     -0.2456
      8  C12        0.7530   12.1840   -2.4240 C.2   401  W2V401      0.3671
      9  O2         0.4730   10.9260   -2.4090 O.co2 401  W2V401     -0.2456
     10  C11        0.5030   12.8250   -3.7640 C.3   401  W2V401      0.1369
     11  O1         2.6030   14.1500   -3.9190 O.3   401  W2V401     -0.3532
     12  C9         1.8690   15.3760   -4.0190 C.3   401  W2V401      0.1425
     13  C3        -1.5360   14.0150   -2.8020 C.ar  401  W2V401     -0.0188
     14  C2        -1.7410   14.8390   -1.6960 C.ar  401  W2V401      0.0326
     15  C1        -2.8990   14.7210   -0.9380 C.ar  401  W2V401      0.1384
     16  O         -2.9640   15.5850    0.1280 O.3   401  W2V401     -0.4714
     17  C         -4.1150   15.5580    0.9720 C.3   401  W2V401      0.2525
@<TRIPOS>BOND
     1     6    11    1
     2     6    10    1
     3    12    11    1
     4    12     5    1
     5    10     4    1
     6    10     8    1
     7     4     5    1
     8     4    13    1
     9     1    13   ar
    10     1     2   ar
    11    13    14   ar
    12     8     9   ar
    13     8     7   ar
    14     2     3   ar
    15    14    15   ar
    16     3    15   ar
    17    15    16    1
    18    16    17    1
