XR8
  -OEChem-02242320043D

 68 72  0     1  0  0  0  0  0999 V2000
    0.5870    1.3570    2.6440 C   0  0  0  0  0  0  0  0  0  0  0  0
    0.6070    0.9650    1.1650 C   0  0  1  0  0  0  0  0  0  0  0  0
    1.9920    0.7700    0.7300 N   0  0  0  0  0  0  0  0  0  0  0  0
    2.7270    1.8260    0.3270 C   0  0  0  0  0  0  0  0  0  0  0  0
    4.1250    1.6290   -0.1120 C   0  0  0  0  0  0  0  0  0  0  0  0
    4.8480    2.6970   -0.6480 C   0  0  0  0  0  0  0  0  0  0  0  0
    4.2030    4.0520   -0.7790 C   0  0  0  0  0  0  0  0  0  0  0  0
    6.1520    2.5100   -1.0570 C   0  0  0  0  0  0  0  0  0  0  0  0
    6.7480    1.2680   -0.9390 C   0  0  0  0  0  0  0  0  0  0  0  0
    6.0370    0.1990   -0.4080 C   0  0  0  0  0  0  0  0  0  0  0  0
    6.6440   -1.0540   -0.2910 N   0  0  0  0  0  0  0  0  0  0  0  0
    8.0290   -1.2410   -0.7290 C   0  0  0  0  0  0  0  0  0  0  0  0
    8.3790   -2.7000   -1.0710 C   0  0  0  0  0  0  0  0  0  0  0  0
    8.7830   -2.8320    0.3460 N   0  0  0  0  0  0  0  0  0  0  0  0
    9.0330   -1.3730    0.4310 C   0  0  0  0  0  0  0  0  0  0  0  0
    4.7270    0.3770    0.0120 C   0  0  0  0  0  0  0  0  0  0  0  0
    2.2400    2.9400    0.3240 O   0  0  0  0  0  0  0  0  0  0  0  0
   -0.1650   -0.3150    0.9750 C   0  0  0  0  0  0  0  0  0  0  0  0
   -1.4620   -0.2740    0.5070 C   0  0  0  0  0  0  0  0  0  0  0  0
   -2.1750   -1.4610    0.3300 C   0  0  0  0  0  0  0  0  0  0  0  0
   -3.5650   -1.4240   -0.1710 C   0  0  0  0  0  0  0  0  0  0  0  0
   -4.3480   -2.5020   -0.3740 C   0  0  0  0  0  0  0  0  0  0  0  0
   -5.6120   -2.2160   -0.8470 C   0  0  0  0  0  0  0  0  0  0  0  0
   -5.8670   -0.9180   -1.0320 C   0  0  0  0  0  0  0  0  0  0  0  0
   -7.1690   -0.3530   -1.5390 C   0  0  0  0  0  0  0  0  0  0  0  0
   -8.0580   -0.0770   -0.4030 N   0  0  0  0  0  0  0  0  0  0  0  0
   -7.5930    1.1100    0.3600 C   0  0  0  0  0  0  0  0  0  0  0  0
   -8.8610    1.5550    1.1310 C   0  0  0  0  0  0  0  0  0  0  0  0
   -9.9950    1.2940    0.1130 C   0  0  0  0  0  0  0  0  0  0  0  0
   -9.4240    0.2510   -0.8660 C   0  0  0  0  0  0  0  0  0  0  0  0
   -4.4560    0.0340   -0.5880 S   0  0  0  0  0  0  0  0  0  0  0  0
   -1.5690   -2.6820    0.6290 C   0  0  0  0  0  0  0  0  0  0  0  0
   -0.2710   -2.7100    1.0960 C   0  0  0  0  0  0  0  0  0  0  0  0
    0.4310   -1.5300    1.2640 C   0  0  0  0  0  0  0  0  0  0  0  0
    1.1450    2.2830    2.7820 H   0  0  0  0  0  0  0  0  0  0  0  0
   -0.4430    1.5020    2.9680 H   0  0  0  0  0  0  0  0  0  0  0  0
    1.0460    0.5650    3.2360 H   0  0  0  0  0  0  0  0  0  0  0  0
    0.1480    1.7580    0.5730 H   0  0  0  0  0  0  0  0  0  0  0  0
    2.3800   -0.1190    0.7320 H   0  0  0  0  0  0  0  0  0  0  0  0
    4.2760    4.5830    0.1710 H   0  0  0  0  0  0  0  0  0  0  0  0
    4.7130    4.6240   -1.5540 H   0  0  0  0  0  0  0  0  0  0  0  0
    3.1540    3.9310   -1.0480 H   0  0  0  0  0  0  0  0  0  0  0  0
    6.7100    3.3380   -1.4710 H   0  0  0  0  0  0  0  0  0  0  0  0
    7.7700    1.1290   -1.2610 H   0  0  0  0  0  0  0  0  0  0  0  0
    6.1470   -1.8010    0.0800 H   0  0  0  0  0  0  0  0  0  0  0  0
    8.3340   -0.5260   -1.4930 H   0  0  0  0  0  0  0  0  0  0  0  0
    7.5150   -3.3080   -1.3400 H   0  0  0  0  0  0  0  0  0  0  0  0
    9.2050   -2.8000   -1.7760 H   0  0  0  0  0  0  0  0  0  0  0  0
    7.9990   -3.0990    0.9220 H   0  0  0  0  0  0  0  0  0  0  0  0
   10.0510   -1.0850    0.1670 H   0  0  0  0  0  0  0  0  0  0  0  0
    8.6900   -0.9230    1.3630 H   0  0  0  0  0  0  0  0  0  0  0  0
    4.1750   -0.4510    0.4290 H   0  0  0  0  0  0  0  0  0  0  0  0
   -1.9240    0.6750    0.2780 H   0  0  0  0  0  0  0  0  0  0  0  0
   -4.0120   -3.5110   -0.1820 H   0  0  0  0  0  0  0  0  0  0  0  0
   -6.3410   -2.9860   -1.0540 H   0  0  0  0  0  0  0  0  0  0  0  0
   -6.9770    0.5710   -2.0830 H   0  0  0  0  0  0  0  0  0  0  0  0
   -7.6430   -1.0750   -2.2040 H   0  0  0  0  0  0  0  0  0  0  0  0
   -6.7980    0.8350    1.0530 H   0  0  0  0  0  0  0  0  0  0  0  0
   -7.2570    1.8950   -0.3170 H   0  0  0  0  0  0  0  0  0  0  0  0
   -9.0000    0.9490    2.0270 H   0  0  0  0  0  0  0  0  0  0  0  0
   -8.8070    2.6130    1.3850 H   0  0  0  0  0  0  0  0  0  0  0  0
  -10.8740    0.8950    0.6190 H   0  0  0  0  0  0  0  0  0  0  0  0
  -10.2460    2.2120   -0.4170 H   0  0  0  0  0  0  0  0  0  0  0  0
   -9.3840    0.6690   -1.8720 H   0  0  0  0  0  0  0  0  0  0  0  0
  -10.0440   -0.6450   -0.8570 H   0  0  0  0  0  0  0  0  0  0  0  0
   -2.1160   -3.6040    0.4950 H   0  0  0  0  0  0  0  0  0  0  0  0
    0.1980   -3.6540    1.3280 H   0  0  0  0  0  0  0  0  0  0  0  0
    1.4470   -1.5570    1.6300 H   0  0  0  0  0  0  0  0  0  0  0  0
  1  2  1  0  0  0  0
 13 14  1  0  0  0  0
 14 15  1  0  0  0  0
 33 34  2  0  0  0  0
 18 34  1  0  0  0  0
  2  3  1  0  0  0  0
  2 18  1  0  0  0  0
 12 13  1  0  0  0  0
  3  4  1  0  0  0  0
 32 33  1  0  0  0  0
 18 19  2  0  0  0  0
 12 15  1  0  0  0  0
 20 32  2  0  0  0  0
  4  5  1  0  0  0  0
  4 17  2  0  0  0  0
 11 12  1  0  0  0  0
 19 20  1  0  0  0  0
  5 16  2  0  0  0  0
  5  6  1  0  0  0  0
  6  7  1  0  0  0  0
 10 16  1  0  0  0  0
  6  8  2  0  0  0  0
  9 10  2  0  0  0  0
 10 11  1  0  0  0  0
  8  9  1  0  0  0  0
 20 21  1  0  0  0  0
 27 28  1  0  0  0  0
 28 29  1  0  0  0  0
 21 31  1  0  0  0  0
 21 22  2  0  0  0  0
 26 27  1  0  0  0  0
 24 31  1  0  0  0  0
 29 30  1  0  0  0  0
 22 23  1  0  0  0  0
 26 30  1  0  0  0  0
 25 26  1  0  0  0  0
 23 24  2  0  0  0  0
 24 25  1  0  0  0  0
  1 35  1  0  0  0  0
  1 36  1  0  0  0  0
  1 37  1  0  0  0  0
  2 38  1  0  0  0  0
  3 39  1  0  0  0  0
  7 40  1  0  0  0  0
  7 41  1  0  0  0  0
  7 42  1  0  0  0  0
  8 43  1  0  0  0  0
  9 44  1  0  0  0  0
 11 45  1  0  0  0  0
 12 46  1  0  0  0  0
 13 47  1  0  0  0  0
 13 48  1  0  0  0  0
 14 49  1  0  0  0  0
 15 50  1  0  0  0  0
 15 51  1  0  0  0  0
 16 52  1  0  0  0  0
 19 53  1  0  0  0  0
 22 54  1  0  0  0  0
 23 55  1  0  0  0  0
 25 56  1  0  0  0  0
 25 57  1  0  0  0  0
 27 58  1  0  0  0  0
 27 59  1  0  0  0  0
 28 60  1  0  0  0  0
 28 61  1  0  0  0  0
 29 62  1  0  0  0  0
 29 63  1  0  0  0  0
 30 64  1  0  0  0  0
 30 65  1  0  0  0  0
 32 66  1  0  0  0  0
 33 67  1  0  0  0  0
 34 68  1  0  0  0  0
M  END
> <OPENEYE_ISO_SMILES>
Cc1ccc(cc1C(=O)N[C@H](C)c2cccc(c2)c3ccc(s3)CN4CCCC4)NC5CNC5

> <OPENEYE_INCHI>
InChI=1S/C28H34N4OS/c1-19-8-9-23(31-24-16-29-17-24)15-26(19)28(33)30-20(2)21-6-5-7-22(14-21)27-11-10-25(34-27)18-32-12-3-4-13-32/h5-11,14-15,20,24,29,31H,3-4,12-13,16-18H2,1-2H3,(H,30,33)/t20-/m1/s1

> <OPENEYE_INCHIKEY>
ZTKSBNLNPMUGBL-HXUWFJFHSA-N

> <FORMULA>
C28H34N4OS

$$$$
