BU2
  -OEChem-02242320023D

 16 15  0     1  0  0  0  0  0999 V2000
    0.2980   -0.2950   -1.4160 C   0  0  0  0  0  0  0  0  0  0  0  0
   -0.2450    0.1870   -2.6460 O   0  0  0  0  0  0  0  0  0  0  0  0
   -0.5940    0.1470   -0.2550 C   0  0  0  0  0  0  0  0  0  0  0  0
   -0.0110   -0.3700    1.0610 C   0  0  1  0  0  0  0  0  0  0  0  0
    1.3020    0.1600    1.2420 O   0  0  0  0  0  0  0  0  0  0  0  0
   -0.9040    0.0720    2.2220 C   0  0  0  0  0  0  0  0  0  0  0  0
    1.3010    0.1090   -1.2780 H   0  0  0  0  0  0  0  0  0  0  0  0
    0.3460   -1.3840   -1.4430 H   0  0  0  0  0  0  0  0  0  0  0  0
    0.3450   -0.1120   -3.3500 H   0  0  0  0  0  0  0  0  0  0  0  0
   -1.5960   -0.2570   -0.3930 H   0  0  0  0  0  0  0  0  0  0  0  0
   -0.6420    1.2350   -0.2280 H   0  0  0  0  0  0  0  0  0  0  0  0
    0.0360   -1.4580    1.0340 H   0  0  0  0  0  0  0  0  0  0  0  0
    1.2150    1.1230    1.2600 H   0  0  0  0  0  0  0  0  0  0  0  0
   -0.4890   -0.2960    3.1600 H   0  0  0  0  0  0  0  0  0  0  0  0
   -0.9520    1.1610    2.2490 H   0  0  0  0  0  0  0  0  0  0  0  0
   -1.9070   -0.3320    2.0840 H   0  0  0  0  0  0  0  0  0  0  0  0
  1  2  1  0  0  0  0
  1  3  1  0  0  0  0
  1  7  1  0  0  0  0
  1  8  1  0  0  0  0
  2  9  1  0  0  0  0
  3  4  1  0  0  0  0
  3 10  1  0  0  0  0
  3 11  1  0  0  0  0
  4  5  1  0  0  0  0
  4  6  1  0  0  0  0
  4 12  1  0  0  0  0
  5 13  1  0  0  0  0
  6 14  1  0  0  0  0
  6 15  1  0  0  0  0
  6 16  1  0  0  0  0
M  END
> <OPENEYE_ISO_SMILES>
C[C@@H](CCO)O

> <OPENEYE_INCHI>
InChI=1S/C4H10O2/c1-4(6)2-3-5/h4-6H,2-3H2,1H3/t4-/m0/s1

> <OPENEYE_INCHIKEY>
PUPZLCDOIYMWBV-BYPYZUCNSA-N

> <FORMULA>
C4H10O2

$$$$
