W04
  -OEChem-02242320043D

 26 26  0     0  0  0  0  0  0999 V2000
   -0.4110    0.8500   -0.1220 N   0  0  0  0  0  0  0  0  0  0  0  0
    1.9880    1.0310   -0.0190 C   0  0  0  0  0  0  0  0  0  0  0  0
    3.2260    0.4170    0.0420 C   0  0  0  0  0  0  0  0  0  0  0  0
    4.4910    1.2350    0.0950 C   0  0  0  0  0  0  0  0  0  0  0  0
    3.2770   -0.9710    0.0530 C   0  0  0  0  0  0  0  0  0  0  0  0
    2.1000   -1.6910    0.0030 C   0  0  0  0  0  0  0  0  0  0  0  0
   -1.4420   -1.1130   -0.0530 O   0  0  0  0  0  0  0  0  0  0  0  0
   -1.5270    0.0960   -0.0650 C   0  0  0  0  0  0  0  0  0  0  0  0
   -2.8800    0.7570   -0.0150 C   0  0  0  0  0  0  0  0  0  0  0  0
   -3.9260   -0.2730    0.0420 N   0  0  0  0  0  0  0  0  0  0  0  0
   -5.2620    0.3360    0.0920 C   0  0  0  0  0  0  0  0  0  0  0  0
    0.8430    0.2430   -0.0670 C   0  0  0  0  0  0  0  0  0  0  0  0
    0.9330   -1.0770   -0.0540 N   0  0  0  0  0  0  0  0  0  0  0  0
   -0.4800    1.8140   -0.2060 H   0  0  0  0  0  0  0  0  0  0  0  0
    1.9110    2.1090   -0.0250 H   0  0  0  0  0  0  0  0  0  0  0  0
    4.7480    1.4380    1.1350 H   0  0  0  0  0  0  0  0  0  0  0  0
    5.3010    0.6810   -0.3790 H   0  0  0  0  0  0  0  0  0  0  0  0
    4.3370    2.1760   -0.4320 H   0  0  0  0  0  0  0  0  0  0  0  0
    4.2270   -1.4810    0.0990 H   0  0  0  0  0  0  0  0  0  0  0  0
    2.1340   -2.7700    0.0110 H   0  0  0  0  0  0  0  0  0  0  0  0
   -2.9440    1.3890    0.8700 H   0  0  0  0  0  0  0  0  0  0  0  0
   -3.0200    1.3670   -0.9080 H   0  0  0  0  0  0  0  0  0  0  0  0
   -3.7810   -0.8920    0.8260 H   0  0  0  0  0  0  0  0  0  0  0  0
   -6.0170   -0.4490    0.1340 H   0  0  0  0  0  0  0  0  0  0  0  0
   -5.3420    0.9650    0.9780 H   0  0  0  0  0  0  0  0  0  0  0  0
   -5.4180    0.9430   -0.8000 H   0  0  0  0  0  0  0  0  0  0  0  0
  3  4  1  0  0  0  0
  2  3  2  0  0  0  0
  3  5  1  0  0  0  0
  2 12  1  0  0  0  0
  5  6  2  0  0  0  0
  7  8  2  0  0  0  0
 10 11  1  0  0  0  0
  1 12  1  0  0  0  0
 12 13  2  0  0  0  0
  1  8  1  0  0  0  0
  8  9  1  0  0  0  0
  6 13  1  0  0  0  0
  9 10  1  0  0  0  0
  1 14  1  0  0  0  0
  2 15  1  0  0  0  0
  4 16  1  0  0  0  0
  4 17  1  0  0  0  0
  4 18  1  0  0  0  0
  5 19  1  0  0  0  0
  6 20  1  0  0  0  0
  9 21  1  0  0  0  0
  9 22  1  0  0  0  0
 10 23  1  0  0  0  0
 11 24  1  0  0  0  0
 11 25  1  0  0  0  0
 11 26  1  0  0  0  0
M  END
> <OPENEYE_ISO_SMILES>
Cc1ccnc(c1)NC(=O)CNC

> <OPENEYE_INCHI>
InChI=1S/C9H13N3O/c1-7-3-4-11-8(5-7)12-9(13)6-10-2/h3-5,10H,6H2,1-2H3,(H,11,12,13)

> <OPENEYE_INCHIKEY>
MKMXMYQLOQBORD-UHFFFAOYSA-N

> <FORMULA>
C9H13N3O

$$$$
