SHA
  -OEChem-02242320043D

 18 18  0     0  0  0  0  0  0999 V2000
    0.1510    0.0050   -0.1920 C   0  0  0  0  0  0  0  0  0  0  0  0
    1.4790   -0.0080   -0.6240 C   0  0  0  0  0  0  0  0  0  0  0  0
    1.7630   -0.0100   -1.9720 C   0  0  0  0  0  0  0  0  0  0  0  0
    0.7370    0.0020   -2.9030 C   0  0  0  0  0  0  0  0  0  0  0  0
   -0.5790    0.0160   -2.4890 C   0  0  0  0  0  0  0  0  0  0  0  0
   -0.8840    0.0130   -1.1360 C   0  0  0  0  0  0  0  0  0  0  0  0
   -2.1770    0.0260   -0.7290 O   0  0  0  0  0  0  0  0  0  0  0  0
   -0.1600    0.0070    1.2500 C   0  0  0  0  0  0  0  0  0  0  0  0
   -1.3170    0.0200    1.6220 O   0  0  0  0  0  0  0  0  0  0  0  0
    0.8380   -0.0040    2.1550 N   0  0  0  0  0  0  0  0  0  0  0  0
    0.5390   -0.0030    3.5390 O   0  0  0  0  0  0  0  0  0  0  0  0
    2.2830   -0.0170    0.0970 H   0  0  0  0  0  0  0  0  0  0  0  0
    2.7910   -0.0210   -2.3050 H   0  0  0  0  0  0  0  0  0  0  0  0
    0.9690    0.0010   -3.9570 H   0  0  0  0  0  0  0  0  0  0  0  0
   -1.3740    0.0260   -3.2210 H   0  0  0  0  0  0  0  0  0  0  0  0
   -2.4550   -0.8960   -0.6500 H   0  0  0  0  0  0  0  0  0  0  0  0
    1.7620   -0.0140    1.8580 H   0  0  0  0  0  0  0  0  0  0  0  0
    1.3850   -0.0130    4.0070 H   0  0  0  0  0  0  0  0  0  0  0  0
  1  2  2  0  0  0  0
  1  6  1  0  0  0  0
  1  8  1  0  0  0  0
  2  3  1  0  0  0  0
  2 12  1  0  0  0  0
  3  4  2  0  0  0  0
  3 13  1  0  0  0  0
  4  5  1  0  0  0  0
  4 14  1  0  0  0  0
  5  6  2  0  0  0  0
  5 15  1  0  0  0  0
  6  7  1  0  0  0  0
  7 16  1  0  0  0  0
  8  9  2  0  0  0  0
  8 10  1  0  0  0  0
 10 11  1  0  0  0  0
 10 17  1  0  0  0  0
 11 18  1  0  0  0  0
M  END
> <OPENEYE_ISO_SMILES>
c1ccc(c(c1)C(=O)NO)O

> <OPENEYE_INCHI>
InChI=1S/C7H7NO3/c9-6-4-2-1-3-5(6)7(10)8-11/h1-4,9,11H,(H,8,10)

> <OPENEYE_INCHIKEY>
HBROZNQEVUILML-UHFFFAOYSA-N

> <FORMULA>
C7H7NO3

$$$$
