STV
  -OEChem-02242320043D

 29 30  0     0  0  0  0  0  0999 V2000
   -1.3130    1.5040    0.4990 C   0  0  0  0  0  0  0  0  0  0  0  0
   -2.6510    1.6900    0.2070 C   0  0  0  0  0  0  0  0  0  0  0  0
   -3.4630    0.5960   -0.0470 C   0  0  0  0  0  0  0  0  0  0  0  0
   -2.9270   -0.6880   -0.0090 C   0  0  0  0  0  0  0  0  0  0  0  0
   -1.5850   -0.8670    0.2830 C   0  0  0  0  0  0  0  0  0  0  0  0
    1.4570    0.0500   -0.3940 N   0  0  0  0  0  0  0  0  0  0  0  0
    5.2190   -1.2170    0.6140 C   0  0  0  0  0  0  0  0  0  0  0  0
    3.3030    1.3740    0.4790 O   0  0  0  0  0  0  0  0  0  0  0  0
    3.6940   -1.2650    0.5010 C   0  0  0  0  0  0  0  0  0  0  0  0
    0.6810    0.0330    0.8490 C   0  0  0  0  0  0  0  0  0  0  0  0
   -0.7790    0.2290    0.5310 C   0  0  0  0  0  0  0  0  0  0  0  0
   -5.1510   -0.8640   -0.1000 C   0  0  0  0  0  0  0  0  0  0  0  0
    3.5010    0.2260   -1.7030 O   0  0  0  0  0  0  0  0  0  0  0  0
   -3.9190   -1.5830   -0.2910 O   0  0  0  0  0  0  0  0  0  0  0  0
   -4.7910    0.5070   -0.3530 O   0  0  0  0  0  0  0  0  0  0  0  0
    3.1030    0.2300   -0.3390 S   0  0  0  0  0  0  0  0  0  0  0  0
   -0.6810    2.3580    0.6970 H   0  0  0  0  0  0  0  0  0  0  0  0
   -3.0640    2.6870    0.1780 H   0  0  0  0  0  0  0  0  0  0  0  0
   -1.1660   -1.8620    0.3130 H   0  0  0  0  0  0  0  0  0  0  0  0
    1.0080   -0.0440   -1.2480 H   0  0  0  0  0  0  0  0  0  0  0  0
    5.5740   -2.1160    1.1190 H   0  0  0  0  0  0  0  0  0  0  0  0
    5.6560   -1.1640   -0.3830 H   0  0  0  0  0  0  0  0  0  0  0  0
    5.5130   -0.3380    1.1870 H   0  0  0  0  0  0  0  0  0  0  0  0
    3.3990   -2.1440   -0.0720 H   0  0  0  0  0  0  0  0  0  0  0  0
    3.2570   -1.3180    1.4980 H   0  0  0  0  0  0  0  0  0  0  0  0
    0.8180   -0.9250    1.3490 H   0  0  0  0  0  0  0  0  0  0  0  0
    1.0220    0.8360    1.5010 H   0  0  0  0  0  0  0  0  0  0  0  0
   -5.9050   -1.2000   -0.8130 H   0  0  0  0  0  0  0  0  0  0  0  0
   -5.5120   -0.9830    0.9220 H   0  0  0  0  0  0  0  0  0  0  0  0
  8 16  2  0  0  0  0
  7  9  1  0  0  0  0
  9 16  1  0  0  0  0
 13 16  2  0  0  0  0
  6 16  1  0  0  0  0
  6 10  1  0  0  0  0
 10 11  1  0  0  0  0
  5 11  2  0  0  0  0
  1 11  1  0  0  0  0
  4  5  1  0  0  0  0
  1  2  2  0  0  0  0
  4 14  1  0  0  0  0
  3  4  2  0  0  0  0
 12 14  1  0  0  0  0
  2  3  1  0  0  0  0
  3 15  1  0  0  0  0
 12 15  1  0  0  0  0
  1 17  1  0  0  0  0
  2 18  1  0  0  0  0
  5 19  1  0  0  0  0
  6 20  1  0  0  0  0
  7 21  1  0  0  0  0
  7 22  1  0  0  0  0
  7 23  1  0  0  0  0
  9 24  1  0  0  0  0
  9 25  1  0  0  0  0
 10 26  1  0  0  0  0
 10 27  1  0  0  0  0
 12 28  1  0  0  0  0
 12 29  1  0  0  0  0
M  END
> <OPENEYE_ISO_SMILES>
CCS(=O)(=O)NCc1ccc2c(c1)OCO2

> <OPENEYE_INCHI>
InChI=1S/C10H13NO4S/c1-2-16(12,13)11-6-8-3-4-9-10(5-8)15-7-14-9/h3-5,11H,2,6-7H2,1H3

> <OPENEYE_INCHIKEY>
UKPLBUIFSDRLEZ-UHFFFAOYSA-N

> <FORMULA>
C10H13NO4S

$$$$
