@<TRIPOS>MOLECULE
/home/pku/3cl/gett_pdb/5SSJ/5SSJ_mol2/ligand/5SSJ_RQI.pdb
 33 35 0 0 0
SMALL
GASTEIGER

@<TRIPOS>ATOM
      1  C17      -51.5750  -29.1520    8.2410 C.ar  201  RQI201      0.0944
      2  C15      -49.7190  -29.1690    7.1640 C.ar  201  RQI201      0.0688
      3  C14      -48.3840  -29.2050    6.7220 C.ar  201  RQI201     -0.0002
      4  C12      -48.1090  -29.1220    5.3620 C.ar  201  RQI201      0.1375
      5  C11      -49.1550  -29.0170    4.4500 C.ar  201  RQI201      0.0739
      6  C10      -48.9140  -28.9000    2.9520 C.2   201  RQI201      0.2469
      7  C20      -50.4680  -28.9710    4.8880 C.ar  201  RQI201     -0.0194
      8  C19      -50.7480  -29.0560    6.2550 C.ar  201  RQI201      0.0897
      9  C02      -43.6820  -32.2210    3.3200 C.2   201  RQI201      0.0904
     10  C03      -44.4050  -31.6410    2.1170 C.ar  201  RQI201      0.0936
     11  C04      -44.7250  -32.4080    0.9870 C.ar  201  RQI201      0.0045
     12  C06      -45.3980  -29.9750    0.9330 C.ar  201  RQI201      0.0805
     13  C07      -45.9400  -28.6000    0.6110 C.3   201  RQI201      0.0116
     14  C08      -47.4130  -28.6000    0.9930 C.3   201  RQI201      0.0178
     15  F13      -46.8190  -29.1600    4.9230 F     201  RQI201     -0.2046
     16  N09      -47.5760  -28.7460    2.4260 N.am  201  RQI201     -0.3109
     17  N16      -50.2670  -29.2260    8.3870 N.ar  201  RQI201     -0.3443
     18  N18      -51.8860  -29.0470    6.9640 N.ar  201  RQI201     -0.2359
     19  N22      -44.7850  -30.3400    2.0580 N.ar  201  RQI201     -0.2428
     20  O01      -43.1380  -31.4440    4.1420 O.co2 201  RQI201     -0.5430
     21  O21      -49.8410  -28.8980    2.2110 O.2   201  RQI201     -0.2701
     22  O23      -43.6320  -33.4670    3.4860 O.co2 201  RQI201     -0.5430
     23  S05      -45.5110  -31.3330   -0.0650 S.2   201  RQI201     -0.0798
     24 H171      -52.1880  -29.1690    8.9350 H     201  RQI201      0.1027
     25 H141      -47.6860  -29.2850    7.3360 H     201  RQI201      0.0668
     26 H201      -51.1590  -28.8910    4.2700 H     201  RQI201      0.0648
     27 H041      -44.5440  -33.3110    0.8600 H     201  RQI201      0.0716
     28 H072      -45.8430  -28.4290   -0.3390 H     201  RQI201      0.0349
     29 H071      -45.4590  -27.9240    1.1170 H     201  RQI201      0.0349
     30 H082      -47.8550  -29.3380    0.5470 H     201  RQI201      0.0466
     31 H081      -47.8140  -27.7660    0.7150 H     201  RQI201      0.0466
     32 H091      -46.8940  -28.7410    2.9560 H     201  RQI201      0.1490
     33 H161      -49.8460  -29.3020    9.1300 H     201  RQI201      0.1668
@<TRIPOS>UNITY_ATOM_ATTR
20 1
charge -1
@<TRIPOS>BOND
     1    28    13    1
     2    23    12   ar
     3    23    11   ar
     4    30    14    1
     5    13    12    1
     6    13    14    1
     7    13    29    1
     8    31    14    1
     9    27    11    1
    10    12    19   ar
    11    11    10   ar
    12    14    16    1
    13    19    10   ar
    14    10     9    1
    15    21     6    2
    16    16     6   am
    17    16    32    1
    18     6     5    1
    19     9    22   ar
    20     9    20   ar
    21    26     7    1
    22     5     7   ar
    23     5     4   ar
    24     7     8   ar
    25    15     4    1
    26     4     3   ar
    27     8    18   ar
    28     8     2   ar
    29     3     2   ar
    30     3    25    1
    31    18     1   ar
    32     2    17   ar
    33     1    17   ar
    34     1    24    1
    35    17    33    1
