@<TRIPOS>MOLECULE
/home/pku/3cl/gett_pdb/5RTS/5RTS_mol2/ligand/5RTS_0LO.pdb
 23 24 0 0 0
SMALL
GASTEIGER

@<TRIPOS>ATOM
      1  CAF      -47.8700  -28.9340    6.3200 C.ar  201  0LO201     -0.0540
      2  CAD      -48.7490  -28.9660    7.3980 C.ar  201  0LO201     -0.0612
      3  CAC      -49.9940  -29.5690    7.2770 C.ar  201  0LO201     -0.0617
      4  CAE      -50.3860  -30.1270    6.0870 C.ar  201  0LO201     -0.0612
      5  CAG      -49.5310  -30.0630    5.0100 C.ar  201  0LO201     -0.0540
      6  CAN      -48.2690  -29.4400    5.1130 C.ar  201  0LO201     -0.0164
      7  CAO      -47.3100  -29.4260    3.8950 C.ar  201  0LO201      0.0009
      8  CAJ      -45.9520  -29.6860    4.0480 C.ar  201  0LO201     -0.0415
      9  CAI      -47.7940  -29.1380    2.6180 C.ar  201  0LO201      0.0353
     10  NAK      -47.0030  -29.1180    1.5640 N.ar  201  0LO201     -0.2620
     11  CAH      -45.7070  -29.3810    1.6910 C.ar  201  0LO201      0.0372
     12  CAM      -45.1450  -29.6640    2.9130 C.ar  201  0LO201      0.0258
     13  CAL      -43.6680  -30.0150    3.0210 C.2   201  0LO201      0.1200
     14  OAB      -43.2490  -30.6660    4.0160 O.co2 201  0LO201     -0.3036
     15  OAA      -42.8660  -29.7120    2.1210 O.co2 201  0LO201     -0.8440
     16  H1       -47.0420  -28.5180    6.4030 H     201  0LO201      0.0624
     17  H2       -48.4900  -28.6040    8.2150 H     201  0LO201      0.0618
     18  H3       -50.5650  -29.5990    8.0100 H     201  0LO201      0.0618
     19  H4       -51.2250  -30.5180    6.0020 H     201  0LO201      0.0618
     20  H5       -49.7930  -30.4360    4.2030 H     201  0LO201      0.0624
     21  H6       -45.6000  -29.9120    4.8780 H     201  0LO201      0.0631
     22  H7       -48.6760  -28.9060    2.5370 H     201  0LO201      0.0836
     23  H8       -45.1650  -29.3660    0.9350 H     201  0LO201      0.0836
@<TRIPOS>UNITY_ATOM_ATTR
15 1
charge -1
@<TRIPOS>BOND
     1    23    11    1
     2    10    11   ar
     3    10     9   ar
     4    11    12   ar
     5    15    13   ar
     6    22     9    1
     7     9     7   ar
     8    12    13    1
     9    12     8   ar
    10    13    14   ar
    11     7     8   ar
    12     7     6    1
    13     8    21    1
    14    20     5    1
    15     5     6   ar
    16     5     4   ar
    17     6     1   ar
    18    19     4    1
    19     4     3   ar
    20     1    16    1
    21     1     2   ar
    22     3     2   ar
    23     3    18    1
    24     2    17    1
