@<TRIPOS>MOLECULE
/home/pku/3cl/gett_pdb/5SOV/5SOV_mol2/ligand/5SOV_WXD.pdb
 41 43 0 0 0
SMALL
GASTEIGER

@<TRIPOS>ATOM
      1  C10      -50.7320  -29.2980    5.2050 C.ar  201  WXD201      0.1341
      2  C13      -51.7960  -30.9250    8.5070 C.3   201  WXD201     -0.0354
      3  C15      -53.4100  -29.2240    7.9450 C.3   201  WXD201      0.0922
      4  C20      -56.1870  -30.2250    7.2050 C.3   201  WXD201      0.0548
      5  C21      -49.3190  -29.2940    5.1590 C.ar  201  WXD201      0.0617
      6  C01      -48.7980  -28.3970    8.2670 C.3   201  WXD201     -0.0612
      7  C02      -48.2980  -29.6670    7.5690 C.3   201  WXD201     -0.0284
      8  C03      -48.2340  -29.4620    6.0590 C.ar  201  WXD201     -0.0177
      9  C04      -47.0570  -29.3240    5.3350 C.ar  201  WXD201      0.0074
     10  C06      -48.7460  -29.0870    3.9370 C.ar  201  WXD201      0.1434
     11  C08      -50.8030  -28.9080    2.9410 C.ar  201  WXD201      0.1204
     12  C12      -51.3180  -30.9430    7.0440 C.3   201  WXD201      0.0136
     13  C14      -53.1870  -30.5310    8.5620 C.3   201  WXD201     -0.0278
     14  C16      -52.8870  -29.1490    6.5020 C.3   201  WXD201      0.0357
     15  N05      -47.3930  -29.1150    4.0680 N.ar  201  WXD201     -0.3454
     16  N07      -49.4970  -28.8940    2.8310 N.ar  201  WXD201     -0.2178
     17  N09      -51.4130  -29.1100    4.0960 N.ar  201  WXD201     -0.2200
     18  N11      -51.4230  -29.5280    6.4360 N.pl3 201  WXD201     -0.3128
     19  O18      -55.7570  -28.4400    9.1840 O.2   201  WXD201     -0.1743
     20  O19      -55.4460  -27.6340    7.0830 O.2   201  WXD201     -0.1743
     21  S17      -55.2310  -28.8460    7.8760 S.O2  201  WXD201     -0.0295
     22 H132      -51.1870  -30.2380    9.0970 H     201  WXD201      0.0281
     23 H131      -51.7110  -31.9210    8.9060 H     201  WXD201      0.0281
     24 H151      -52.9000  -28.4730    8.5280 H     201  WXD201      0.0551
     25 H203      -55.5990  -30.7580    6.4680 H     201  WXD201      0.0464
     26 H201      -57.0840  -29.8300    6.7420 H     201  WXD201      0.0464
     27 H202      -56.4570  -30.8920    8.0140 H     201  WXD201      0.0464
     28 H012      -48.3010  -27.5310    7.8410 H     201  WXD201      0.0233
     29 H011      -48.5660  -28.4570    9.3270 H     201  WXD201      0.0233
     30 H013      -49.8700  -28.3000    8.1370 H     201  WXD201      0.0233
     31 H022      -48.9110  -30.5040    7.8480 H     201  WXD201      0.0311
     32 H021      -47.3010  -29.8690    7.9140 H     201  WXD201      0.0311
     33 H041      -46.0440  -29.3840    5.7220 H     201  WXD201      0.0810
     34 H081      -51.3960  -28.7660    2.0610 H     201  WXD201      0.1048
     35 H122      -50.3070  -31.3370    6.9730 H     201  WXD201      0.0464
     36 H121      -51.9500  -31.6160    6.4830 H     201  WXD201      0.0464
     37 H141      -53.7680  -31.2710    8.0150 H     201  WXD201      0.0285
     38 H142      -53.5100  -30.4960    9.5890 H     201  WXD201      0.0285
     39 H162      -53.4480  -29.8410    5.8870 H     201  WXD201      0.0483
     40 H161      -53.0060  -28.1450    6.1140 H     201  WXD201      0.0483
     41 H051      -46.7520  -28.9780    3.3180 H     201  WXD201      0.1668
@<TRIPOS>BOND
     1    34    11    1
     2    16    11   ar
     3    16    10   ar
     4    11    17   ar
     5    41    15    1
     6    10    15   ar
     7    10     5   ar
     8    15     9   ar
     9    17     1   ar
    10     5     1   ar
    11     5     8   ar
    12     1    18    1
    13     9    33    1
    14     9     8   ar
    15    39    14    1
    16     8     7    1
    17    40    14    1
    18    18    14    1
    19    18    12    1
    20    25     4    1
    21    36    12    1
    22    14     3    1
    23    26     4    1
    24    35    12    1
    25    12     2    1
    26    20    21    2
    27     4    21    1
    28     4    27    1
    29     7    31    1
    30     7    32    1
    31     7     6    1
    32    28     6    1
    33    21     3    1
    34    21    19    2
    35     3    24    1
    36     3    13    1
    37    37    13    1
    38    30     6    1
    39     6    29    1
    40     2    13    1
    41     2    23    1
    42     2    22    1
    43    13    38    1
