@<TRIPOS>MOLECULE
/home/pku/3cl/gett_pdb/7LTN/7LTN_mol2/ligand/7LTN_YCV.pdb
 26 28 0 0 0
SMALL
GASTEIGER

@<TRIPOS>ATOM
      1  N1         6.9460    1.5460   17.1740 N.2   401  YCV401     -0.1508
      2  C7         4.7110    3.1310   19.5400 C.2   401  YCV401      0.0040
      3  C8         5.6260    2.3910   18.7970 C.3   401  YCV401      0.1708
      4  N2        10.3100   -4.1650   25.8780 N.am  401  YCV401     -0.2730
      5  C9         7.1480    0.8540   18.2830 C.2   401  YCV401      0.1197
      6  O1         6.6940   -4.1150   19.6170 O.2   401  YCV401     -0.2830
      7  C1         7.7990   -1.4090   23.0970 C.ar  401  YCV401      0.1725
      8  C5         5.2090    1.7500   21.4470 C.2   401  YCV401     -0.0005
      9  C6         4.5160    2.7980   20.8710 C.2   401  YCV401     -0.0023
     10  C4         6.1150    0.9910   20.7070 C.2   401  YCV401     -0.0001
     11  C3         6.6640   -0.2320   21.3260 C.ar  401  YCV401      0.0031
     12  O3         8.1370   -4.4100   25.3890 O.2   401  YCV401     -0.2708
     13  C2         7.2270   -0.2510   22.6060 C.ar  401  YCV401      0.0400
     14  N          6.0060    2.4930   17.4930 N.2   401  YCV401     -0.1674
     15  C          7.9990   -0.4270   25.2670 C.3   401  YCV401      0.2526
     16  O          8.1760   -1.5540   24.4070 O.3   401  YCV401     -0.4684
     17  C10        6.3530    1.3220   19.3460 C.2   401  YCV401      0.0267
     18  C11        6.7070   -1.3830   20.5620 C.ar  401  YCV401      0.0065
     19  C12        7.4340   -2.4860   20.9350 C.ar  401  YCV401      0.0792
     20  C13        7.6410   -3.5260   19.9760 C.2   401  YCV401      0.2373
     21  C14        7.9270   -2.5360   22.2690 C.ar  401  YCV401      0.1760
     22  C15        9.5530   -3.8630   23.5530 C.3   401  YCV401      0.2897
     23  C16        9.2750   -4.1720   25.0190 C.2   401  YCV401      0.2703
     24  C17       10.1190   -4.0500   27.3220 C.3   401  YCV401      0.1150
     25  C18       11.6900   -4.2790   25.4190 C.3   401  YCV401      0.1150
     26  O2         8.3300   -3.7610   22.8010 O.3   401  YCV401     -0.4624
@<TRIPOS>BOND
     1     1    14    2
     2     1     5    1
     3    14     3    1
     4     5    17    2
     5     3    17    1
     6     3     2    1
     7    17    10    1
     8     2     9    2
     9     6    20    2
    10    20    19    1
    11    18    19   ar
    12    18    11   ar
    13    10    11    1
    14    10     8    2
    15     9     8    1
    16    19    21   ar
    17    11    13   ar
    18    21    26    1
    19    21     7   ar
    20    13     7   ar
    21    26    22    1
    22     7    16    1
    23    22    23    1
    24    16    15    1
    25    23    12    2
    26    23     4   am
    27    25     4    1
    28     4    24    1
