VX4
  -OEChem-02242320043D

 31 32  0     1  0  0  0  0  0999 V2000
    0.8190   -1.0100   -0.5310 N   0  0  0  0  0  0  0  0  0  0  0  0
    3.2830   -1.1030   -0.1080 C   0  0  0  0  0  0  0  0  0  0  0  0
    1.9890   -1.8950   -0.3700 C   0  0  0  0  0  0  0  0  0  0  0  0
    0.8650    0.2140   -1.2990 C   0  0  0  0  0  0  0  0  0  0  0  0
    1.2500    1.3950   -0.3730 C   0  0  0  0  0  0  0  0  0  0  0  0
   -0.3420   -1.3600    0.0580 C   0  0  0  0  0  0  0  0  0  0  0  0
   -2.7210   -0.7760    0.4770 C   0  0  0  0  0  0  0  0  0  0  0  0
    3.0250    2.5320    0.8470 C   0  0  0  0  0  0  0  0  0  0  0  0
    2.6640    1.2970    0.0200 C   0  0  1  0  0  0  0  0  0  0  0  0
    3.0060    0.0520    0.8320 C   0  0  0  0  0  0  0  0  0  0  0  0
   -0.4390   -2.4340    0.6190 O   0  0  0  0  0  0  0  0  0  0  0  0
   -1.4930   -0.4410    0.0210 C   0  0  0  0  0  0  0  0  0  0  0  0
   -3.7720    0.5540    0.2590 S   0  0  0  0  0  0  0  0  0  0  0  0
   -2.5100    1.4830   -0.4210 C   0  0  0  0  0  0  0  0  0  0  0  0
   -1.4210    0.8000   -0.4660 N   0  0  0  0  0  0  0  0  0  0  0  0
    4.0290   -1.7620    0.3380 H   0  0  0  0  0  0  0  0  0  0  0  0
    3.6650   -0.7160   -1.0530 H   0  0  0  0  0  0  0  0  0  0  0  0
    1.8110   -2.5680    0.4690 H   0  0  0  0  0  0  0  0  0  0  0  0
    2.1130   -2.4870   -1.2760 H   0  0  0  0  0  0  0  0  0  0  0  0
    1.6070    0.1180   -2.0910 H   0  0  0  0  0  0  0  0  0  0  0  0
   -0.1140    0.4040   -1.7400 H   0  0  0  0  0  0  0  0  0  0  0  0
    1.0850    2.3350   -0.8990 H   0  0  0  0  0  0  0  0  0  0  0  0
    0.6270    1.3690    0.5220 H   0  0  0  0  0  0  0  0  0  0  0  0
   -2.9940   -1.7300    0.9040 H   0  0  0  0  0  0  0  0  0  0  0  0
    2.3950    2.5710    1.7350 H   0  0  0  0  0  0  0  0  0  0  0  0
    4.0720    2.4750    1.1460 H   0  0  0  0  0  0  0  0  0  0  0  0
    2.8660    3.4290    0.2490 H   0  0  0  0  0  0  0  0  0  0  0  0
    3.2740    1.2960   -0.8840 H   0  0  0  0  0  0  0  0  0  0  0  0
    2.1650   -0.1990    1.4790 H   0  0  0  0  0  0  0  0  0  0  0  0
    3.8880    0.2440    1.4420 H   0  0  0  0  0  0  0  0  0  0  0  0
   -2.6150    2.4990   -0.7730 H   0  0  0  0  0  0  0  0  0  0  0  0
  2 10  1  0  0  0  0
  2  3  1  0  0  0  0
  8  9  1  0  0  0  0
  9 10  1  0  0  0  0
  1  3  1  0  0  0  0
  5  9  1  0  0  0  0
  6 11  2  0  0  0  0
  1  6  1  0  0  0  0
  1  4  1  0  0  0  0
  4  5  1  0  0  0  0
  6 12  1  0  0  0  0
 12 15  1  0  0  0  0
  7 12  2  0  0  0  0
 14 15  2  0  0  0  0
  7 13  1  0  0  0  0
 13 14  1  0  0  0  0
  2 16  1  0  0  0  0
  2 17  1  0  0  0  0
  3 18  1  0  0  0  0
  3 19  1  0  0  0  0
  4 20  1  0  0  0  0
  4 21  1  0  0  0  0
  5 22  1  0  0  0  0
  5 23  1  0  0  0  0
  7 24  1  0  0  0  0
  8 25  1  0  0  0  0
  8 26  1  0  0  0  0
  8 27  1  0  0  0  0
  9 28  1  0  0  0  0
 10 29  1  0  0  0  0
 10 30  1  0  0  0  0
 14 31  1  0  0  0  0
M  END
> <OPENEYE_ISO_SMILES>
C[C@H]1CCCN(CC1)C(=O)c2cscn2

> <OPENEYE_INCHI>
InChI=1S/C11H16N2OS/c1-9-3-2-5-13(6-4-9)11(14)10-7-15-8-12-10/h7-9H,2-6H2,1H3/t9-/m0/s1

> <OPENEYE_INCHIKEY>
ORSJIQSXTAJDMZ-VIFPVBQESA-N

> <FORMULA>
C11H16N2OS

$$$$
