@<TRIPOS>MOLECULE
/home/pku/3cl/gett_pdb/7C8U/7C8U_mol2/ligand/7C8U_K36.pdb
 29 30 0 0 0
SMALL
GASTEIGER

@<TRIPOS>ATOM
      1  C7       -14.1750    3.2620   -1.2180 C.3   401  K36401      0.2368
      2  O8       -15.0150    2.8970   -0.0960 O.3   401  K36401     -0.4285
      3  C9       -14.8010    1.6800    0.4290 C.2   401  K36401      0.4218
      4  O10      -14.1690    1.4800    1.4430 O.2   401  K36401     -0.2245
      5  C1       -12.7740    3.5890   -0.7840 C.ar  401  K36401      0.0213
      6  C2       -12.5240    4.6430    0.0800 C.ar  401  K36401     -0.0007
      7  C3       -11.2240    4.9460    0.4610 C.ar  401  K36401     -0.0002
      8  C4       -10.1660    4.2130   -0.0290 C.ar  401  K36401     -0.0000
      9  C5       -10.4010    3.1660   -0.8880 C.ar  401  K36401     -0.0002
     10  C6       -11.7000    2.8560   -1.2670 C.ar  401  K36401     -0.0007
     11  N11      -15.3980    0.7260   -0.3070 N.am  401  K36401     -0.1611
     12  C12      -15.4760   -0.6340    0.1950 C.3   401  K36401      0.1761
     13  C17      -14.1030   -1.2670    0.4130 C.2   401  K36401      0.2614
     14  O18      -13.3880   -1.5410   -0.5510 O.2   401  K36401     -0.2715
     15  C13      -16.3050   -1.5010   -0.7480 C.3   401  K36401      0.0312
     16  C14      -17.7760   -1.1020   -0.8650 C.3   401  K36401      0.0022
     17  C15      -18.5240   -2.0930   -1.7280 C.3   401  K36401      0.0001
     18  C16      -18.4380   -0.9840    0.4980 C.3   401  K36401      0.0001
     19  N19      -13.7640   -1.5150    1.6830 N.am  401  K36401     -0.2030
     20  C20      -12.4900   -2.0990    2.1120 C.3   401  K36401      0.1287
     21  C21      -12.6930   -3.5900    2.4230 C.3   401  K36401      0.2036
     22  O22      -11.4320   -4.2580    2.4980 O.3   401  K36401     -0.2185
     23  C24      -11.9310   -1.2900    3.2880 C.3   401  K36401      0.0335
     24  C25      -11.5820    0.1380    2.8830 C.3   401  K36401      0.0818
     25  C26      -10.3990    0.3090    1.9380 C.3   401  K36401      0.0326
     26  C27       -9.8000    1.6560    2.3200 C.3   401  K36401      0.1156
     27  N28      -10.2290    1.8260    3.7050 N.am  401  K36401     -0.2054
     28  C29      -11.2300    1.0270    4.0610 C.2   401  K36401      0.2410
     29  O30      -11.8010    1.0210    5.1690 O.2   401  K36401     -0.2734
@<TRIPOS>BOND
     1    17    16    1
     2    10     9   ar
     3    10     5   ar
     4     1     5    1
     5     1     2    1
     6     9     8   ar
     7    16    15    1
     8    16    18    1
     9     5     6   ar
    10    15    12    1
    11    14    13    2
    12    11    12    1
    13    11     3   am
    14     2     3    1
    15     8     7   ar
    16     6     7   ar
    17    12    13    1
    18    13    19   am
    19     3     4    2
    20    19    20    1
    21    25    26    1
    22    25    24    1
    23    20    21    1
    24    20    23    1
    25    26    27    1
    26    21    22    1
    27    24    23    1
    28    24    28    1
    29    27    28   am
    30    28    29    2
