010
  -OEChem-02242320003D

 16 16  0     0  0  0  0  0  0999 V2000
    1.9220    0.0040   -0.5650 C   0  0  0  0  0  0  0  0  0  0  0  0
    2.6350   -0.0030    0.6730 O   0  0  0  0  0  0  0  0  0  0  0  0
   -0.2400    1.1980   -0.1590 C   0  0  0  0  0  0  0  0  0  0  0  0
   -1.6000    1.1960    0.0920 C   0  0  0  0  0  0  0  0  0  0  0  0
   -2.2780   -0.0020    0.2170 C   0  0  0  0  0  0  0  0  0  0  0  0
   -1.5970   -1.1980    0.0900 C   0  0  0  0  0  0  0  0  0  0  0  0
   -0.2370   -1.1960   -0.1610 C   0  0  0  0  0  0  0  0  0  0  0  0
    0.4400    0.0020   -0.2910 C   0  0  0  0  0  0  0  0  0  0  0  0
    2.1850    0.8970   -1.1310 H   0  0  0  0  0  0  0  0  0  0  0  0
    2.1860   -0.8830   -1.1410 H   0  0  0  0  0  0  0  0  0  0  0  0
    3.5970   -0.0020    0.5730 H   0  0  0  0  0  0  0  0  0  0  0  0
    0.2900    2.1340   -0.2560 H   0  0  0  0  0  0  0  0  0  0  0  0
   -2.1320    2.1310    0.1920 H   0  0  0  0  0  0  0  0  0  0  0  0
   -3.3400   -0.0030    0.4130 H   0  0  0  0  0  0  0  0  0  0  0  0
   -2.1260   -2.1340    0.1880 H   0  0  0  0  0  0  0  0  0  0  0  0
    0.2950   -2.1310   -0.2600 H   0  0  0  0  0  0  0  0  0  0  0  0
  1  2  1  0  0  0  0
  1  8  1  0  0  0  0
  1  9  1  0  0  0  0
  1 10  1  0  0  0  0
  2 11  1  0  0  0  0
  3  8  2  0  0  0  0
  3  4  1  0  0  0  0
  3 12  1  0  0  0  0
  4  5  2  0  0  0  0
  4 13  1  0  0  0  0
  5  6  1  0  0  0  0
  5 14  1  0  0  0  0
  6  7  2  0  0  0  0
  6 15  1  0  0  0  0
  7  8  1  0  0  0  0
  7 16  1  0  0  0  0
M  END
> <OPENEYE_ISO_SMILES>
c1ccc(cc1)CO

> <OPENEYE_INCHI>
InChI=1S/C7H8O/c8-6-7-4-2-1-3-5-7/h1-5,8H,6H2

> <OPENEYE_INCHIKEY>
WVDDGKGOMKODPV-UHFFFAOYSA-N

> <FORMULA>
C7H8O

$$$$
