@<TRIPOS>MOLECULE
/home/pku/3cl/gett_pdb/7RVT/7RVT_mol2/ligand/7RVT_7XK.pdb
 37 39 0 0 0
SMALL
GASTEIGER

@<TRIPOS>ATOM
      1  C1         6.7660   -0.5760   33.1930 C.ar  401  7XK401     -0.0000
      2  C11        9.9290    1.9760   27.6850 C.3   401  7XK401      0.1760
      3  C12       10.2200    2.3910   26.2740 C.2   401  7XK401      0.2617
      4  C14        9.7410    3.9440   24.4570 C.3   401  7XK401      0.1728
      5  C15       11.0880    4.5050   24.0830 C.2   401  7XK401      0.2612
      6  C17       13.0750    4.3700   22.6260 C.3   401  7XK401      0.1287
      7  C18       12.2810    2.8080   28.2240 C.3   401  7XK401      0.0023
      8  C19       14.0110    3.1570   22.7330 C.3   401  7XK401      0.0339
      9  C2         6.4140    0.4850   32.3650 C.ar  401  7XK401     -0.0002
     10  C20       14.0730    2.5340   24.1110 C.3   401  7XK401      0.0861
     11  C21       14.8740    3.4170   25.0550 C.3   401  7XK401      0.0534
     12  C22       16.0010    2.5240   25.5980 C.2   401  7XK401      0.0627
     13  C23        6.2840    5.6170   23.6790 C.3   401  7XK401      0.0001
     14  C24       14.9040    1.2910   23.9880 C.2   401  7XK401      0.2453
     15  C27       13.2030    4.9610   21.2020 C.3   401  7XK401      0.2036
     16  C3         6.3000    0.2850   30.9920 C.ar  401  7XK401     -0.0007
     17  C30       11.1780    1.7970   28.5290 C.3   401  7XK401      0.0291
     18  C34        8.6600    4.9950   24.1880 C.3   401  7XK401      0.0311
     19  C35        7.2530    4.4570   23.8970 C.3   401  7XK401      0.0021
     20  C36        7.2720    3.6500   22.6160 C.3   401  7XK401      0.0001
     21  C37        6.6950    3.6140   25.0440 C.3   401  7XK401      0.0001
     22  C4         6.5580   -0.9700   30.4330 C.ar  401  7XK401      0.0213
     23  C5         6.8950   -2.0340   31.2620 C.ar  401  7XK401     -0.0007
     24  C6         7.0040   -1.8340   32.6420 C.ar  401  7XK401     -0.0002
     25  C7         6.4090   -1.2000   28.9430 C.3   401  7XK401      0.2368
     26  C8        11.3630    3.0120   29.4240 C.3   401  7XK401      0.0023
     27  C9         7.9980    0.5820   28.0600 C.2   401  7XK401      0.4218
     28  N10        9.2590    0.7060   27.6940 N.am  401  7XK401     -0.1611
     29  N13        9.6820    3.5400   25.8590 N.am  401  7XK401     -0.1963
     30  N16       11.7030    4.0180   22.9810 N.am  401  7XK401     -0.2030
     31  N23       15.9130    1.2860   24.8470 N.am  401  7XK401     -0.1826
     32  O26       14.6830    0.4240   23.1590 O.2   401  7XK401     -0.2730
     33  O28       14.4460    5.6980   21.1280 O.3   401  7XK401     -0.2185
     34  O29        7.2760    1.5370   28.3260 O.2   401  7XK401     -0.2245
     35  O33       10.9340    1.7060   25.5470 O.2   401  7XK401     -0.2715
     36  O38       11.5610    5.3900   24.7830 O.2   401  7XK401     -0.2715
     37  O8         7.5080   -0.7790   28.1300 O.3   401  7XK401     -0.4285
@<TRIPOS>BOND
     1    33    15    1
     2    15     6    1
     3    20    19    1
     4     6     8    1
     5     6    30    1
     6     8    10    1
     7    30     5   am
     8    32    14    2
     9    13    19    1
    10    19    18    1
    11    19    21    1
    12    14    10    1
    13    14    31    1
    14     5     4    1
    15     5    36    2
    16    10    11    1
    17    18     4    1
    18     4    29    1
    19    31    12    2
    20    11    12    1
    21    35     3    2
    22    29     3   am
    23     3     2    1
    24     2    28    1
    25     2    17    1
    26    28    27   am
    27    27    37    1
    28    27    34    2
    29    37    25    1
    30     7    17    1
    31     7    26    1
    32    17    26    1
    33    25    22    1
    34    22    16   ar
    35    22    23   ar
    36    16     9   ar
    37    23    24   ar
    38     9     1   ar
    39    24     1   ar
