@<TRIPOS>MOLECULE
/home/pku/3cl/gett_pdb/7U29/7U29_mol2/ligand/7U29_4WI.pdb
 35 37 0 0 0
SMALL
GASTEIGER

@<TRIPOS>ATOM
      1  C8        -2.5020    1.5910   16.6620 C.2   401  4WI401      0.2410
      2  C3        -3.2690    5.9340   14.4350 C.2   401  4WI401      0.1171
      3  C1        -5.1730    3.4090   12.9020 C.2   401  4WI401      0.2597
      4  C13       -5.2180    0.3610   12.0650 C.2   401  4WI401      0.2458
      5  C21       -5.4250   -2.4780   10.3130 C.2   401  4WI401      0.3371
      6  C6        -4.7480    2.4000   16.5160 C.3   401  4WI401      0.0326
      7  C7        -4.6890    1.1940   17.4250 C.3   401  4WI401      0.1156
      8  C10       -6.8920    1.4960   10.5580 C.3   401  4WI401      0.0939
      9  C5        -3.4170    2.3730   15.7430 C.3   401  4WI401      0.0821
     10  C9        -5.0560    2.7610   11.5450 C.3   401  4WI401      0.1535
     11  C11       -6.7890    2.8090    9.8600 C.3   401  4WI401      0.0220
     12  C12       -5.6530    3.5790   10.4310 C.3   401  4WI401      0.0289
     13  C18       -5.6470    3.2050    8.9480 C.3   401  4WI401      0.0037
     14  C19       -4.8380    2.0700    8.4310 C.3   401  4WI401      0.0001
     15  C20       -5.9420    4.2460    7.9320 C.3   401  4WI401      0.0001
     16  C16       -7.4720   -2.3880   13.3690 C.3   401  4WI401      0.0022
     17  C17       -7.2920   -0.0260   14.0170 C.3   401  4WI401      0.0022
     18  C23       -5.4260   -1.5510   14.5030 C.3   401  4WI401      0.0022
     19  C4        -2.8720    3.7720   15.5310 C.3   401  4WI401      0.0371
     20  C2        -3.8260    4.5650   14.6490 C.3   401  4WI401      0.1386
     21  C14       -6.0290   -0.9150   12.1030 C.3   401  4WI401      0.1714
     22  C22       -4.6160   -3.6820    9.9420 C.3   401  4WI401      0.4711
     23  C15       -6.5180   -1.2150   13.5010 C.3   401  4WI401      0.0269
     24  N5        -3.7330    6.9390   15.0940 N.2   401  4WI401     -0.1496
     25  N2        -3.2810    1.0110   17.6490 N.am  401  4WI401     -0.2054
     26  N3        -5.8190    1.4970   11.5690 N.am  401  4WI401     -0.2716
     27  N1        -3.9890    4.0060   13.3160 N.am  401  4WI401     -0.1996
     28  N4        -5.1830   -1.9690   11.5690 N.am  401  4WI401     -0.1908
     29  O1        -1.2980    1.4780   16.5310 O.2   401  4WI401     -0.2734
     30  O2        -6.2220    3.4110   13.5300 O.2   401  4WI401     -0.2715
     31  O3        -4.0900    0.3940   12.5200 O.2   401  4WI401     -0.2730
     32  O4        -6.2010   -1.9890    9.5070 O.2   401  4WI401     -0.2642
     33  F1        -3.2880   -3.5790   10.1990 F     401  4WI401     -0.1620
     34  F2        -4.7050   -3.8520    8.6000 F     401  4WI401     -0.1620
     35  F3        -5.0340   -4.8430   10.5250 F     401  4WI401     -0.1620
@<TRIPOS>BOND
     1    15    13    1
     2    14    13    1
     3    34    22    1
     4    13    11    1
     5    13    12    1
     6    32     5    2
     7    11    12    1
     8    11     8    1
     9    22    33    1
    10    22     5    1
    11    22    35    1
    12     5    28   am
    13    12    10    1
    14     8    26    1
    15    10    26    1
    16    10     3    1
    17    28    21    1
    18    26     4   am
    19     4    21    1
    20     4    31    2
    21    21    23    1
    22     3    27   am
    23     3    30    2
    24    27    20    1
    25    16    23    1
    26    23    17    1
    27    23    18    1
    28     2    20    1
    29     2    24    2
    30    20    19    1
    31    19     9    1
    32     9     6    1
    33     9     1    1
    34     6     7    1
    35    29     1    2
    36     1    25   am
    37     7    25    1
