@<TRIPOS>MOLECULE
/home/pku/3cl/gett_pdb/7MB0/7MB0_mol2/ligand/7MB0_YVG.pdb
 74 76 0 0 0
SMALL
GASTEIGER

@<TRIPOS>ATOM
      1  C10       27.6740  -10.5740    4.8490 C.2   401  YVG401      0.2162
      2  C13       29.1490  -15.2200    3.8290 C.3   401  YVG401      0.0160
      3  C15       30.5610  -17.0660    4.8050 C.2   401  YVG401      0.3077
      4  C20       32.3320  -18.6590    5.0260 C.3   401  YVG401      0.0896
      5  C21       33.4080  -18.9360    6.0950 C.3   401  YVG401     -0.0306
      6  C22       29.3630  -10.2090    6.5340 C.3   401  YVG401      0.0123
      7  C24       32.5630  -12.9260   -4.0040 C.ar  401  YVG401     -0.0617
      8  C26       33.7430  -12.7400   -1.6500 C.ar  401  YVG401     -0.0585
      9  C28       31.4060  -13.9490   -1.8640 C.ar  401  YVG401     -0.0585
     10  C01       32.0080  -10.0880    1.2140 C.2   401  YVG401      0.2308
     11  C04       31.8180  -12.5590    1.0260 C.3   401  YVG401      0.1033
     12  C05       32.6200  -13.7360    0.4810 C.3   401  YVG401     -0.0007
     13  C07       29.5210  -13.7180    3.9460 C.3   401  YVG401      0.0312
     14  C08       28.4000  -12.7480    4.2810 C.3   401  YVG401     -0.0228
     15  C09       28.8930  -11.1980    4.3410 C.3   401  YVG401      0.0386
     16  C14       30.4540  -16.0240    3.7100 C.3   401  YVG401      0.0534
     17  C18       31.3640  -12.8700    2.4430 C.2   401  YVG401      0.2339
     18  C23       29.8880  -11.1750    5.4780 C.3   401  YVG401     -0.0262
     19  C25       33.7390  -12.4680   -3.1500 C.ar  401  YVG401     -0.0615
     20  C27       32.5950  -13.5020   -1.0220 C.ar  401  YVG401     -0.0451
     21  C29       31.3950  -13.6620   -3.3650 C.ar  401  YVG401     -0.0615
     22  C30       32.8370   -8.8010    1.2570 C.3   401  YVG401      0.0863
     23  C32       33.6180   -8.5650   -0.0370 C.3   401  YVG401     -0.0039
     24  C33       31.0980   -7.6040   -3.7290 C.ar  401  YVG401     -0.0617
     25  C34       31.5700   -9.0300   -3.4570 C.ar  401  YVG401     -0.0615
     26  C35       32.4080   -9.3440   -2.2270 C.ar  401  YVG401     -0.0585
     27  C36       32.7760   -8.2370   -1.2520 C.ar  401  YVG401     -0.0454
     28  C37       32.3190   -6.8170   -1.5180 C.ar  401  YVG401     -0.0585
     29  C38       31.4850   -6.4950   -2.7570 C.ar  401  YVG401     -0.0615
     30  N02       32.6510  -11.3640    1.0390 N.am  401  YVG401     -0.3024
     31  N06       30.0230  -13.3700    2.6090 N.am  401  YVG401     -0.3103
     32  N11       27.9350  -10.0210    6.2160 N.am  401  YVG401     -0.3151
     33  N31       31.9270   -7.6980    1.5460 N.3   401  YVG401     -0.3197
     34  O03       30.7980  -10.0450    1.3280 O.2   401  YVG401     -0.2741
     35  O12       26.6230  -10.5740    4.2730 O.2   401  YVG401     -0.2755
     36  O16       31.8310  -17.3960    5.2870 O.3   401  YVG401     -0.4649
     37  O17       29.5860  -17.5610    5.2880 O.2   401  YVG401     -0.2508
     38  O19       32.0690  -12.7030    3.3810 O.2   401  YVG401     -0.2738
     39 H201       32.7250  -18.6860    4.1400 H     401  YVG401      0.0694
     40 H202       31.6230  -19.3180    5.0860 H     401  YVG401      0.0694
     41 H213       34.2470  -18.5360    5.8210 H     401  YVG401      0.0262
     42 H212       33.5240  -19.8940    6.1960 H     401  YVG401      0.0262
     43 H211       33.1290  -18.5540    6.9420 H     401  YVG401      0.0262
     44 H222       29.8340   -9.3630    6.4780 H     401  YVG401      0.0462
     45 H221       29.4620  -10.5940    7.4190 H     401  YVG401      0.0462
     46 H241       32.5590  -12.7540   -4.9180 H     401  YVG401      0.0618
     47 H261       34.4480  -12.4390   -1.1220 H     401  YVG401      0.0620
     48 H281       30.6920  -14.3930   -1.4670 H     401  YVG401      0.0620
     49 H041       31.0440  -12.4080    0.4610 H     401  YVG401      0.0598
     50 H051       33.5290  -13.7250    0.8210 H     401  YVG401      0.0336
     51 H052       32.2000  -14.5800    0.7100 H     401  YVG401      0.0336
     52 H071       30.1380  -13.6270    4.6890 H     401  YVG401      0.0504
     53 H082       28.0310  -12.9880    5.1450 H     401  YVG401      0.0290
     54 H081       27.7110  -12.8260    3.6020 H     401  YVG401      0.0290
     55 H091       29.2640  -10.7800    3.5480 H     401  YVG401      0.0395
     56 H141       31.2070  -15.4160    3.7770 H     401  YVG401      0.0384
     57 H142       30.4730  -16.4690    2.8480 H     401  YVG401      0.0384
     58 H232       30.7480  -10.8660    5.1530 H     401  YVG401      0.0288
     59 H231       29.9680  -12.0630    5.8600 H     401  YVG401      0.0288
     60 H251       34.4550  -12.0240   -3.5440 H     401  YVG401      0.0618
     61 H291       30.6760  -13.9370   -3.8860 H     401  YVG401      0.0618
     62 H301       33.5100   -8.8730    1.9510 H     401  YVG401      0.0557
     63 H321       34.2280   -7.8260    0.1130 H     401  YVG401      0.0333
     64 H322       34.1250   -9.3680   -0.2310 H     401  YVG401      0.0333
     65 H331       30.5810   -7.4140   -4.4780 H     401  YVG401      0.0618
     66 H341       31.3420   -9.7120   -4.0470 H     401  YVG401      0.0618
     67 H351       32.6970  -10.2140   -2.0720 H     401  YVG401      0.0620
     68 H371       32.5480   -6.1390   -0.9250 H     401  YVG401      0.0620
     69 H381       31.2120   -5.6210   -2.9180 H     401  YVG401      0.0618
     70 H021       33.5040  -11.4190    0.9440 H     401  YVG401      0.1495
     71 H061       29.5140  -13.4660    1.9230 H     401  YVG401      0.1490
     72 H111       27.3120  -10.0110    6.8510 H     401  YVG401      0.1487
     73 H311       31.1360   -7.8760    1.1780 H     401  YVG401      0.1189
     74  H3        31.8350   -7.6160    2.4210 H     401  YVG401      0.1189
@<TRIPOS>BOND
     1    46     7    1
     2    65    24    1
     3    66    25    1
     4     7    21   ar
     5     7    19   ar
     6    61    21    1
     7    24    25   ar
     8    24    29   ar
     9    60    19    1
    10    25    26   ar
    11    21     9   ar
    12    19     8   ar
    13    69    29    1
    14    29    28   ar
    15    26    67    1
    16    26    27   ar
    17     9    48    1
    18     9    20   ar
    19     8    47    1
    20     8    20   ar
    21    28    27   ar
    22    28    68    1
    23    27    23    1
    24    20    12    1
    25    64    23    1
    26    23    63    1
    27    23    22    1
    28    49    11    1
    29    12    51    1
    30    12    50    1
    31    12    11    1
    32    70    30    1
    33    11    30    1
    34    11    17    1
    35    30    10   am
    36    73    33    1
    37    10    22    1
    38    10    34    2
    39    22    33    1
    40    22    62    1
    41    33    74    1
    42    71    31    1
    43    17    31   am
    44    17    38    2
    45    31    13    1
    46    57    16    1
    47    55    15    1
    48    54    14    1
    49    16    56    1
    50    16     2    1
    51    16     3    1
    52     2    13    1
    53    13    14    1
    54    13    52    1
    55    39     4    1
    56    35     1    2
    57    14    15    1
    58    14    53    1
    59    15     1    1
    60    15    18    1
    61     3    36    1
    62     3    37    2
    63     1    32   am
    64     4    40    1
    65     4    36    1
    66     4     5    1
    67    58    18    1
    68    18    59    1
    69    18     6    1
    70    41     5    1
    71     5    42    1
    72     5    43    1
    73    32     6    1
    74    32    72    1
    75    44     6    1
    76     6    45    1
