@<TRIPOS>MOLECULE
/home/pku/3cl/gett_pdb/6XHL/6XHL_mol2/ligand/6XHL_V2M.pdb
 34 36 0 0 0
SMALL
GASTEIGER

@<TRIPOS>ATOM
      1  C1        23.4890   58.0400   29.1430 C.3   9001  V2M9001     0.2520
      2  O2        23.8440   56.7000   29.5150 O.2   9001  V2M9001    -0.4753
      3  C3        24.7190   56.5290   30.5540 C.2   9001  V2M9001     0.1220
      4  C4        25.2560   57.5490   31.3310 C.3   9001  V2M9001     0.0900
      5  C5        26.0900   57.2530   32.4060 C.2   9001  V2M9001    -0.0166
      6  C6        26.5040   55.9480   32.6470 C.2   9001  V2M9001     0.0151
      7  C7        26.0030   54.9350   31.8370 C.2   9001  V2M9001     0.0838
      8  N8        26.2390   53.5750   31.8760 N.2   9001  V2M9001    -0.2406
      9  C9        25.4930   52.9690   30.8830 C.2   9001  V2M9001     0.1362
     10  C10       24.8080   53.9300   30.1740 C.2   9001  V2M9001     0.0280
     11  C11       25.1030   55.1990   30.7890 C.2   9001  V2M9001     0.0494
     12  C12       25.5990   51.5080   30.6930 C.2   9001  V2M9001     0.2829
     13  O13       26.3400   50.8280   31.4070 O.2   9001  V2M9001    -0.2667
     14  N14       24.9180   51.0010   29.6640 N.am  9001  V2M9001    -0.1927
     15  C15       25.0020   49.5890   29.3270 C.3   9001  V2M9001     0.1731
     16  C17       23.9480   49.2000   28.2870 C.3   9001  V2M9001     0.0311
     17  C18       22.5110   49.3540   28.7610 C.3   9001  V2M9001     0.0022
     18  C19       22.1250   48.2400   29.7440 C.3   9001  V2M9001     0.0001
     19  C20       21.5610   49.3940   27.5640 C.3   9001  V2M9001     0.0001
     20  C21       26.4030   49.2320   28.8330 C.2   9001  V2M9001     0.2613
     21  O22       27.0000   49.9630   28.0380 O.2   9001  V2M9001    -0.2715
     22  N23       26.9130   48.0880   29.3080 N.am  9001  V2M9001    -0.2030
     23  C24       28.1330   47.4950   28.7740 C.3   9001  V2M9001     0.1287
     24  C26       29.1590   47.2670   29.8840 C.3   9001  V2M9001     0.0335
     25  C27       29.7430   48.5810   30.4250 C.3   9001  V2M9001     0.0818
     26  C29       30.5590   49.3600   29.4330 C.3   9001  V2M9001     0.0326
     27  C30       31.6600   49.7290   30.2250 C.3   9001  V2M9001     0.1156
     28  N31       31.7710   49.1670   31.4370 N.am  9001  V2M9001    -0.2054
     29  C32       30.6670   48.3920   31.6110 C.2   9001  V2M9001     0.2410
     30  O33       30.3660   47.7220   32.5970 O.2   9001  V2M9001    -0.2734
     31  C34       27.8130   46.2480   27.9480 C.3   9001  V2M9001     0.2045
     32  O35       29.0150   45.6020   27.5300 O.3   9001  V2M9001    -0.2185
     33  C36       27.0320   46.6270   26.6910 C.3   9001  V2M9001     0.2165
     34  O37       26.6420   45.5050   25.9130 O.3   9001  V2M9001    -0.2175
@<TRIPOS>BOND
     1    34    33    1
     2    33    31    1
     3    32    31    1
     4    19    17    1
     5    31    23    1
     6    21    20    2
     7    16    17    1
     8    16    15    1
     9    17    18    1
    10    23    22    1
    11    23    24    1
    12    20    22   am
    13    20    15    1
    14     1     2    1
    15    15    14    1
    16    26    27    1
    17    26    25    1
    18     2     3    1
    19    14    12   am
    20    24    25    1
    21    10    11    1
    22    10     9    2
    23    27    28    1
    24    25    29    1
    25     3    11    2
    26     3     4    1
    27    12     9    1
    28    12    13    2
    29    11     7    1
    30     9     8    1
    31     4     5    1
    32    28    29   am
    33    29    30    2
    34     7     8    2
    35     7     6    1
    36     5     6    2
