BHA
  -OEChem-02242320023D

 18 18  0     0  0  0  0  0  0999 V2000
    0.2860    0.0050   -2.0200 C   0  0  0  0  0  0  0  0  0  0  0  0
   -0.7490    0.0160   -2.6560 O   0  0  0  0  0  0  0  0  0  0  0  0
    1.4710   -0.0070   -2.6620 O   0  0  0  0  0  0  0  0  0  0  0  0
    0.2460    0.0040   -0.5500 C   0  0  0  0  0  0  0  0  0  0  0  0
   -0.9870    0.0170    0.1210 C   0  0  0  0  0  0  0  0  0  0  0  0
   -1.0140    0.0100    1.5040 C   0  0  0  0  0  0  0  0  0  0  0  0
    0.1770    0.0020    2.2200 C   0  0  0  0  0  0  0  0  0  0  0  0
    1.3990   -0.0090    1.5490 C   0  0  0  0  0  0  0  0  0  0  0  0
    1.4360   -0.0080    0.1850 C   0  0  0  0  0  0  0  0  0  0  0  0
   -2.1460    0.0300   -0.5830 O   0  0  0  0  0  0  0  0  0  0  0  0
    0.1490    0.0010    3.6100 N   0  0  0  0  0  0  0  0  0  0  0  0
    1.4980   -0.0060   -3.6280 H   0  0  0  0  0  0  0  0  0  0  0  0
   -1.9590    0.0190    2.0270 H   0  0  0  0  0  0  0  0  0  0  0  0
    2.3200   -0.0190    2.1120 H   0  0  0  0  0  0  0  0  0  0  0  0
    2.3870   -0.0170   -0.3270 H   0  0  0  0  0  0  0  0  0  0  0  0
   -2.3950   -0.8920   -0.7290 H   0  0  0  0  0  0  0  0  0  0  0  0
    0.9800   -0.0070    4.1110 H   0  0  0  0  0  0  0  0  0  0  0  0
   -0.6990    0.0140    4.0780 H   0  0  0  0  0  0  0  0  0  0  0  0
  1  2  2  0  0  0  0
  1  3  1  0  0  0  0
  1  4  1  0  0  0  0
  3 12  1  0  0  0  0
  4  5  1  0  0  0  0
  4  9  2  0  0  0  0
  5  6  2  0  0  0  0
  5 10  1  0  0  0  0
  6  7  1  0  0  0  0
  6 13  1  0  0  0  0
  7  8  2  0  0  0  0
  7 11  1  0  0  0  0
  8  9  1  0  0  0  0
  8 14  1  0  0  0  0
  9 15  1  0  0  0  0
 10 16  1  0  0  0  0
 11 17  1  0  0  0  0
 11 18  1  0  0  0  0
M  END
> <OPENEYE_ISO_SMILES>
c1cc(c(cc1N)O)C(=O)O

> <OPENEYE_INCHI>
InChI=1S/C7H7NO3/c8-4-1-2-5(7(10)11)6(9)3-4/h1-3,9H,8H2,(H,10,11)

> <OPENEYE_INCHIKEY>
WUBBRNOQWQTFEX-UHFFFAOYSA-N

> <FORMULA>
C7H7NO3

$$$$
