@<TRIPOS>MOLECULE
/home/pku/3cl/gett_pdb/7TIX/7TIX_mol2/ligand/7TIX_Q56.pdb
 33 35 0 0 0
SMALL
GASTEIGER

@<TRIPOS>ATOM
      1  C16        6.4080    1.3110   25.5920 C.3   401  Q56401      0.0022
      2  C12        7.9000    3.1000   19.8370 C.2   401  Q56401      0.2287
      3  C14        7.4480    0.1970   23.5250 C.3   401  Q56401      0.1761
      4  C15        7.6350    1.1850   24.6720 C.3   401  Q56401      0.0312
      5  C17        5.5560    0.0530   25.7240 C.3   401  Q56401      0.0001
      6  C18        6.8550    1.7770   26.9740 C.3   401  Q56401      0.0001
      7  C22        8.9470   -4.2860   22.8030 C.3   401  Q56401      0.2368
      8  C23       10.1250   -4.0860   21.8400 C.ar  401  Q56401      0.0213
      9  C25       11.9970   -2.7930   21.0200 C.ar  401  Q56401     -0.0002
     10  C26       12.8040   -1.6590   21.0820 C.ar  401  Q56401     -0.0000
     11  C27       13.8640   -1.5040   20.1880 C.ar  401  Q56401     -0.0000
     12  C29       13.3070   -3.6160   19.1600 C.ar  401  Q56401     -0.0000
     13  C10        7.7670   -1.4350   17.7250 C.2   401  Q56401      0.2410
     14  C2         8.2200    0.7120   22.2990 C.2   401  Q56401      0.2617
     15  C20        8.0720   -2.1570   23.1570 C.2   401  Q56401      0.4218
     16  C24       10.9380   -2.9490   21.9060 C.ar  401  Q56401     -0.0007
     17  C28       14.1200   -2.4820   19.2280 C.ar  401  Q56401     -0.0000
     18  C30       12.2470   -3.7690   20.0550 C.ar  401  Q56401     -0.0000
     19  C31       11.4430   -4.9020   19.9900 C.ar  401  Q56401     -0.0002
     20  C32       10.3870   -5.0620   20.8840 C.ar  401  Q56401     -0.0007
     21  C4         8.2140    1.6140   20.0450 C.3   401  Q56401      0.1601
     22  C5         7.7170    0.7900   18.8480 C.3   401  Q56401      0.0389
     23  C6         8.2020   -0.7000   18.9390 C.3   401  Q56401      0.0821
     24  C7         9.7050   -0.7570   18.9920 C.3   401  Q56401      0.0326
     25  C8        10.0340   -1.9990   18.0970 C.3   401  Q56401      0.1156
     26  N19        7.9880   -1.0830   23.9490 N.am  401  Q56401     -0.1611
     27  N3         7.5350    1.1350   21.2340 N.am  401  Q56401     -0.1977
     28  N9         8.7740   -2.1610   17.2360 N.am  401  Q56401     -0.2054
     29  O1         9.4260    0.7520   22.2910 O.2   401  Q56401     -0.2715
     30  O11        6.6690   -1.3790   17.2550 O.2   401  Q56401     -0.2734
     31  O13        8.4700    3.7170   18.9680 O.2   401  Q56401     -0.2864
     32  O21        8.7510   -3.1800   23.6550 O.3   401  Q56401     -0.4285
     33  O33        7.5790   -2.1900   22.0540 O.2   401  Q56401     -0.2245
@<TRIPOS>BOND
     1    28    13   am
     2    28    25    1
     3    30    13    2
     4    13    23    1
     5    25    24    1
     6    22    23    1
     7    22    21    1
     8    23    24    1
     9    31     2    2
    10    12    17   ar
    11    12    18   ar
    12    17    11   ar
    13     2    21    1
    14    19    18   ar
    15    19    20   ar
    16    21    27    1
    17    18     9   ar
    18    11    10   ar
    19    20     8   ar
    20     9    10   ar
    21     9    16   ar
    22    27    14   am
    23     8    16   ar
    24     8     7    1
    25    33    15    2
    26    29    14    2
    27    14     3    1
    28     7    32    1
    29    15    32    1
    30    15    26   am
    31     3    26    1
    32     3     4    1
    33     4     1    1
    34     1     5    1
    35     1     6    1
