@<TRIPOS>MOLECULE
/home/pku/3cl/gett_pdb/7SGH/7SGH_mol2/ligand/7SGH_99W.pdb
 32 33 0 0 0
SMALL
GASTEIGER

@<TRIPOS>ATOM
      1  N1        -6.4520  -27.9420   56.5690 N.am  401  99W401     -0.1963
      2  N3        -5.8910  -25.0210   54.7820 N.am  401  99W401     -0.1995
      3  C4        -8.5940  -28.9610   54.6210 C.3   401  99W401      0.0022
      4  C5       -10.0790  -29.1610   54.3630 C.3   401  99W401      0.0001
      5  C6        -7.7860  -29.5010   53.4590 C.3   401  99W401      0.0001
      6  C7        -5.1830  -27.9680   56.9930 C.2   401  99W401      0.2638
      7  C8        -4.8880  -28.6040   58.3550 C.3   401  99W401      0.1986
      8  C10       -5.3890  -31.7680   59.9700 C.ar  401  99W401      0.1593
      9  C13       -4.2750  -32.9070   57.6970 C.ar  401  99W401      0.0607
     10  C15       -5.5190  -23.6330   55.0170 C.3   401  99W401      0.1386
     11  C17       -4.0080  -23.4350   55.1530 C.3   401  99W401      0.0371
     12  C20       -2.5290  -23.4840   58.5880 C.3   401  99W401      0.1156
     13  C21       -1.8640  -23.8200   56.3650 C.2   401  99W401      0.2410
     14  O1        -6.9850  -25.2560   56.7350 O.2   401  99W401     -0.2715
     15  C1        -6.6110  -25.7210   55.6600 C.2   401  99W401      0.2615
     16  C2        -6.8340  -27.2060   55.3680 C.3   401  99W401      0.1728
     17  C3        -8.2680  -27.4920   54.9070 C.3   401  99W401      0.0311
     18  N2        -5.7680  -29.6850   58.7390 N.pl3 401  99W401     -0.2232
     19  C9        -5.3330  -31.0060   58.8010 C.ar  401  99W401      0.1207
     20  F1        -5.9300  -31.2070   61.0710 F     401  99W401     -0.2027
     21  C11       -4.9120  -33.0660   60.0240 C.ar  401  99W401      0.0607
     22  C12       -4.3630  -33.5900   58.8770 C.ar  401  99W401      0.1447
     23  F2        -3.8810  -34.8540   58.9020 F     401  99W401     -0.2040
     24  C14       -4.7610  -31.6180   57.6830 C.ar  401  99W401      0.1593
     25  F3        -4.6880  -30.9110   56.5410 F     401  99W401     -0.2027
     26  O2        -4.2630  -27.4510   56.3560 O.2   401  99W401     -0.2714
     27  C16       -6.0340  -22.7510   53.8980 C.2   401  99W401      0.1171
     28  N4        -6.3750  -21.5150   54.1530 N.2   401  99W401     -0.1496
     29  C18       -3.3660  -24.0420   56.3850 C.3   401  99W401      0.0821
     30  C19       -3.8050  -23.5230   57.7530 C.3   401  99W401      0.0326
     31  N5        -1.4590  -23.4840   57.5870 N.am  401  99W401     -0.2054
     32  O3        -1.1510  -23.9440   55.3770 O.2   401  99W401     -0.2734
@<TRIPOS>BOND
     1     5     3    1
     2    27    28    2
     3    27    10    1
     4     4     3    1
     5     3    17    1
     6     2    10    1
     7     2    15   am
     8    17    16    1
     9    10    11    1
    10    11    29    1
    11    16    15    1
    12    16     1    1
    13    32    13    2
    14    15    14    2
    15    26     6    2
    16    13    29    1
    17    13    31   am
    18    29    30    1
    19    25    24    1
    20     1     6   am
    21     6     7    1
    22    31    12    1
    23    24     9   ar
    24    24    19   ar
    25     9    22   ar
    26    30    12    1
    27     7    18    1
    28    18    19    1
    29    19     8   ar
    30    22    23    1
    31    22    21   ar
    32     8    21   ar
    33     8    20    1
