@<TRIPOS>MOLECULE
/home/pku/3cl/gett_pdb/5RVK/5RVK_mol2/ligand/5RVK_2AK.pdb
 19 20 0 0 0
SMALL
GASTEIGER

@<TRIPOS>ATOM
      1 BR1         3.7700   18.3810   -9.0960 Br    201  2AK201     -0.0483
      2  C5         3.2070   16.7610  -10.0040 C.ar  201  2AK201      0.0400
      3  C4         3.4980   16.5830  -11.3630 C.ar  201  2AK201     -0.0430
      4  C3         3.1140   15.3860  -12.0200 C.ar  201  2AK201     -0.0486
      5  C12        3.4310   15.1930  -13.5010 C.3   201  2AK201     -0.0397
      6  C2         2.4440   14.3800  -11.3100 C.ar  201  2AK201     -0.0460
      7  C6         2.5380   15.7570   -9.2930 C.ar  201  2AK201      0.0589
      8  N7         2.0960   15.6640   -7.8450 N.am  201  2AK201     -0.2773
      9  C8         1.4400   14.3850   -7.6550 C.2   201  2AK201      0.2887
     10  O11        0.9040   14.0200   -6.6640 O.2   201  2AK201     -0.2663
     11  C9         1.4590   13.6720   -8.9430 C.2   201  2AK201      0.2493
     12  C1         2.1530   14.5560   -9.9520 C.ar  201  2AK201      0.0494
     13  O10        0.9410   12.6300   -9.1700 O.2   201  2AK201     -0.2817
     14  H1         3.9680   17.2380  -11.8270 H     201  2AK201      0.0632
     15  H2         2.6800   15.4970  -14.0350 H     201  2AK201      0.0278
     16  H3         4.2210   15.7060  -13.7320 H     201  2AK201      0.0278
     17  H4         3.5930   14.2530  -13.6770 H     201  2AK201      0.0278
     18  H5         2.1710   13.6060  -11.7470 H     201  2AK201      0.0628
     19  H6         2.2110   16.2670   -7.2420 H     201  2AK201      0.1553
@<TRIPOS>BOND
     1    15     5    1
     2    16     5    1
     3    17     5    1
     4     5     4    1
     5     4     3   ar
     6     4     6   ar
     7    14     3    1
     8    18     6    1
     9     3     2   ar
    10     6    12   ar
    11     2     7   ar
    12     2     1    1
    13    12     7   ar
    14    12    11    1
    15     7     8    1
    16    13    11    2
    17    11     9    1
    18     8     9   am
    19     8    19    1
    20     9    10    2
