8NK
  -OEChem-02242320013D

 47 49  0     1  0  0  0  0  0999 V2000
    3.8460    0.2470    0.5820 P   0  0  2  0  0  0  0  0  0  0  0  0
    4.6490    1.4190    0.9970 O   0  0  0  0  0  0  0  0  0  0  0  0
    3.5920   -0.7060    1.8550 O   0  0  0  0  0  0  0  0  0  0  0  0
    4.6410   -0.5740   -0.5520 O   0  0  0  0  0  0  0  0  0  0  0  0
    2.4330    0.7460   -0.0060 O   0  0  0  0  0  0  0  0  0  0  0  0
    6.1670   -1.0560   -0.7220 P   0  0  0  0  0  0  0  0  0  0  0  0
    6.6470   -1.6350    0.5530 O   0  0  0  0  0  0  0  0  0  0  0  0
    6.2530   -2.1680   -1.8830 O   0  0  0  0  0  0  0  0  0  0  0  0
    7.0870    0.2050   -1.1180 O   0  0  0  0  0  0  0  0  0  0  0  0
    1.5410    1.5900    0.7240 C   0  0  0  0  0  0  0  0  0  0  0  0
    0.2970    1.8700   -0.1220 C   0  0  1  0  0  0  0  0  0  0  0  0
   -0.4500    0.6570   -0.3100 O   0  0  0  0  0  0  0  0  0  0  0  0
   -0.6230    2.8660    0.6110 C   0  0  1  0  0  0  0  0  0  0  0  0
   -0.8020    4.0490   -0.1690 O   0  0  0  0  0  0  0  0  0  0  0  0
   -1.9620    2.1040    0.7620 C   0  0  1  0  0  0  0  0  0  0  0  0
   -3.0710    2.9700    0.5130 O   0  0  0  0  0  0  0  0  0  0  0  0
   -1.8470    1.0220   -0.3420 C   0  0  2  0  0  0  0  0  0  0  0  0
   -2.6890   -0.1330   -0.0220 N   0  0  0  0  0  0  0  0  0  0  0  0
   -2.2890   -1.2730    0.6130 C   0  0  0  0  0  0  0  0  0  0  0  0
   -3.2960   -2.0880    0.7330 N   0  3  0  0  0  0  0  0  0  0  0  0
   -3.2470   -3.4090    1.3620 C   0  0  0  0  0  0  0  0  0  0  0  0
   -4.3990   -1.5220    0.1830 C   0  0  0  0  0  0  0  0  0  0  0  0
   -5.7430   -1.9330    0.0270 C   0  0  0  0  0  0  0  0  0  0  0  0
   -6.1160   -3.0190    0.4380 O   0  0  0  0  0  0  0  0  0  0  0  0
   -6.6040   -1.0920   -0.5870 N   0  0  0  0  0  0  0  0  0  0  0  0
   -6.1770    0.1200   -1.0410 C   0  0  0  0  0  0  0  0  0  0  0  0
   -7.0740    0.9540   -1.6610 N   0  0  0  0  0  0  0  0  0  0  0  0
   -4.9300    0.5140   -0.9030 N   0  0  0  0  0  0  0  0  0  0  0  0
   -4.0230   -0.2630   -0.3000 C   0  0  0  0  0  0  0  0  0  0  0  0
    3.0710   -1.4960    1.6570 H   0  0  0  0  0  0  0  0  0  0  0  0
    7.1460   -2.5050   -2.0400 H   0  0  0  0  0  0  0  0  0  0  0  0
    6.8300    0.6350   -1.9450 H   0  0  0  0  0  0  0  0  0  0  0  0
    1.2460    1.0940    1.6490 H   0  0  0  0  0  0  0  0  0  0  0  0
    2.0400    2.5300    0.9590 H   0  0  0  0  0  0  0  0  0  0  0  0
    0.5910    2.2780   -1.0900 H   0  0  0  0  0  0  0  0  0  0  0  0
   -0.2120    3.1140    1.5900 H   0  0  0  0  0  0  0  0  0  0  0  0
   -1.3730    4.7110    0.2450 H   0  0  0  0  0  0  0  0  0  0  0  0
   -2.0400    1.6470    1.7480 H   0  0  0  0  0  0  0  0  0  0  0  0
   -3.1330    3.7160    1.1250 H   0  0  0  0  0  0  0  0  0  0  0  0
   -2.1130    1.4360   -1.3140 H   0  0  0  0  0  0  0  0  0  0  0  0
   -1.2870   -1.4690    0.9640 H   0  0  0  0  0  0  0  0  0  0  0  0
   -3.4690   -3.3140    2.4250 H   0  0  0  0  0  0  0  0  0  0  0  0
   -3.9830   -4.0630    0.8940 H   0  0  0  0  0  0  0  0  0  0  0  0
   -2.2510   -3.8350    1.2360 H   0  0  0  0  0  0  0  0  0  0  0  0
   -7.5310   -1.3520   -0.7060 H   0  0  0  0  0  0  0  0  0  0  0  0
   -7.9970    0.6770   -1.7710 H   0  0  0  0  0  0  0  0  0  0  0  0
   -6.7840    1.8190   -1.9900 H   0  0  0  0  0  0  0  0  0  0  0  0
 15 16  1  0  0  0  0
 13 14  1  0  0  0  0
 26 27  1  0  0  0  0
 13 15  1  0  0  0  0
 15 17  1  0  0  0  0
 26 28  2  0  0  0  0
 28 29  1  0  0  0  0
 25 26  1  0  0  0  0
 11 13  1  0  0  0  0
 12 17  1  0  0  0  0
 17 18  1  0  0  0  0
 11 12  1  0  0  0  0
 10 11  1  0  0  0  0
 23 25  1  0  0  0  0
 18 29  1  0  0  0  0
 22 29  2  0  0  0  0
 18 19  1  0  0  0  0
  5 10  1  0  0  0  0
 22 23  1  0  0  0  0
 20 22  1  0  0  0  0
 23 24  2  0  0  0  0
 19 20  2  0  0  0  0
  1  5  1  0  0  0  0
 20 21  1  0  0  0  0
  1  4  1  0  0  0  0
  1  2  2  0  0  0  0
  1  3  1  0  0  0  0
  4  6  1  0  0  0  0
  6  7  2  0  0  0  0
  6  8  1  0  0  0  0
  6  9  1  0  0  0  0
  3 30  1  0  0  0  0
  8 31  1  0  0  0  0
  9 32  1  0  0  0  0
 10 33  1  0  0  0  0
 10 34  1  0  0  0  0
 11 35  1  0  0  0  0
 13 36  1  0  0  0  0
 14 37  1  0  0  0  0
 15 38  1  0  0  0  0
 16 39  1  0  0  0  0
 17 40  1  0  0  0  0
 19 41  1  0  0  0  0
 21 42  1  0  0  0  0
 21 43  1  0  0  0  0
 21 44  1  0  0  0  0
 25 45  1  0  0  0  0
 27 46  1  0  0  0  0
 27 47  1  0  0  0  0
M  CHG  1  20   1
M  END
> <OPENEYE_ISO_SMILES>
C[n+]1cn(c2c1c(=O)[nH]c(n2)N)[C@H]3[C@@H]([C@@H]([C@H](O3)CO[P@@](=O)(O)OP(=O)(O)O)O)O

> <OPENEYE_INCHI>
InChI=1S/C11H17N5O11P2/c1-15-3-16(8-5(15)9(19)14-11(12)13-8)10-7(18)6(17)4(26-10)2-25-29(23,24)27-28(20,21)22/h3-4,6-7,10,17-18H,2H2,1H3,(H5-,12,13,14,19,20,21,22,23,24)/p+1/t4-,6-,7-,10-/m1/s1

> <OPENEYE_INCHIKEY>
SBASPRRECYVBRF-KQYNXXCUSA-O

> <FORMULA>
C11H18N5O11P2+

$$$$
