EJF
  -OEChem-02242320023D

 74 76  0     1  0  0  0  0  0999 V2000
   -6.7630   -0.0230   -0.9760 C   0  0  0  0  0  0  0  0  0  0  0  0
   -9.6870    0.2330    1.3900 C   0  0  0  0  0  0  0  0  0  0  0  0
   -7.5660    0.5650    2.4700 C   0  0  0  0  0  0  0  0  0  0  0  0
   -1.3630    2.6090   -0.9600 C   0  0  0  0  0  0  0  0  0  0  0  0
   -0.2960    1.4800   -2.9170 C   0  0  0  0  0  0  0  0  0  0  0  0
    2.3880   -3.0950    1.0940 C   0  0  0  0  0  0  0  0  0  0  0  0
    2.2660   -4.6110    1.2610 C   0  0  0  0  0  0  0  0  0  0  0  0
    5.2770   -0.5950   -0.7020 C   0  0  2  0  0  0  0  0  0  0  0  0
    2.8620   -0.9020   -0.8160 C   0  0  0  0  0  0  0  0  0  0  0  0
    1.5240   -1.1110   -0.1550 C   0  0  2  0  0  0  0  0  0  0  0  0
   -0.6950   -0.1720   -0.5160 C   0  0  0  0  0  0  0  0  0  0  0  0
   -1.8380    0.2000   -1.4250 C   0  0  2  0  0  0  0  0  0  0  0  0
   -4.2660    0.0800   -1.2570 C   0  0  0  0  0  0  0  0  0  0  0  0
   -5.5110    0.1470   -0.4770 C   0  0  0  0  0  0  0  0  0  0  0  0
   -7.6770    0.1180    0.0960 C   0  0  0  0  0  0  0  0  0  0  0  0
   -9.0730    0.0480    0.1850 C   0  0  0  0  0  0  0  0  0  0  0  0
   -8.9390    0.4910    2.5320 C   0  0  0  0  0  0  0  0  0  0  0  0
   -6.9170    0.3800    1.2530 C   0  0  0  0  0  0  0  0  0  0  0  0
   -1.5610    1.5640   -2.0600 C   0  0  0  0  0  0  0  0  0  0  0  0
    1.3170   -2.6020    0.1180 C   0  0  0  0  0  0  0  0  0  0  0  0
    2.1930   -2.4150    2.4500 C   0  0  0  0  0  0  0  0  0  0  0  0
    5.8890   -1.8830   -1.1900 C   0  0  0  0  0  0  0  0  0  0  0  0
    6.2110    0.0600    0.3170 C   0  0  0  0  0  0  0  0  0  0  0  0
    5.6380    1.4150    0.7370 C   0  0  2  0  0  0  0  0  0  0  0  0
    5.6260    2.3920   -0.4620 C   0  0  0  0  0  0  0  0  0  0  0  0
    5.9670    3.7340    0.2220 C   0  0  0  0  0  0  0  0  0  0  0  0
    6.5410    2.0800    1.7520 C   0  0  0  0  0  0  0  0  0  0  0  0
    0.4620   -0.6240   -1.0390 N   0  0  0  0  0  0  0  0  0  0  0  0
   -3.0790    0.2670   -0.6480 N   0  0  0  0  0  0  0  0  0  0  0  0
   -5.5940    0.3930    0.8800 N   0  0  0  0  0  0  0  0  0  0  0  0
    3.9850   -0.8770   -0.0710 N   0  0  0  0  0  0  0  0  0  0  0  0
    6.7140    3.3770    1.4340 N   0  0  0  0  0  0  0  0  0  0  0  0
    2.9280   -0.7560   -2.0180 O   0  0  0  0  0  0  0  0  0  0  0  0
   -4.3080   -0.1440   -2.4520 O   0  0  0  0  0  0  0  0  0  0  0  0
   -0.8170   -0.0650    0.6860 O   0  0  0  0  0  0  0  0  0  0  0  0
    5.3060   -2.9280   -1.0270 O   0  0  0  0  0  0  0  0  0  0  0  0
    7.0360    1.5250    2.7100 O   0  0  0  0  0  0  0  0  0  0  0  0
   -7.0160   -0.2260   -2.0060 H   0  0  0  0  0  0  0  0  0  0  0  0
  -10.7630    0.1780    1.4570 H   0  0  0  0  0  0  0  0  0  0  0  0
   -6.9930    0.7660    3.3640 H   0  0  0  0  0  0  0  0  0  0  0  0
   -1.1650    3.5800   -1.4130 H   0  0  0  0  0  0  0  0  0  0  0  0
   -2.2640    2.6690   -0.3500 H   0  0  0  0  0  0  0  0  0  0  0  0
   -0.5180    2.3210   -0.3340 H   0  0  0  0  0  0  0  0  0  0  0  0
   -0.3980    0.6680   -3.6370 H   0  0  0  0  0  0  0  0  0  0  0  0
   -0.1540    2.4210   -3.4490 H   0  0  0  0  0  0  0  0  0  0  0  0
    0.5650    1.2910   -2.2760 H   0  0  0  0  0  0  0  0  0  0  0  0
    3.3750   -2.8510    0.7030 H   0  0  0  0  0  0  0  0  0  0  0  0
    1.2780   -4.8550    1.6520 H   0  0  0  0  0  0  0  0  0  0  0  0
    2.4040   -5.0950    0.2950 H   0  0  0  0  0  0  0  0  0  0  0  0
    3.0280   -4.9620    1.9570 H   0  0  0  0  0  0  0  0  0  0  0  0
    5.1290    0.0800   -1.5460 H   0  0  0  0  0  0  0  0  0  0  0  0
    1.4940   -0.5620    0.7860 H   0  0  0  0  0  0  0  0  0  0  0  0
   -1.9400   -0.5510   -2.2070 H   0  0  0  0  0  0  0  0  0  0  0  0
   -9.6630   -0.1530   -0.6970 H   0  0  0  0  0  0  0  0  0  0  0  0
   -9.4400    0.6350    3.4780 H   0  0  0  0  0  0  0  0  0  0  0  0
   -2.4060    1.8520   -2.6870 H   0  0  0  0  0  0  0  0  0  0  0  0
    1.3950   -3.1570   -0.8170 H   0  0  0  0  0  0  0  0  0  0  0  0
    0.3300   -2.7580    0.5520 H   0  0  0  0  0  0  0  0  0  0  0  0
    1.2330   -2.7140    2.8720 H   0  0  0  0  0  0  0  0  0  0  0  0
    2.9950   -2.7130    3.1250 H   0  0  0  0  0  0  0  0  0  0  0  0
    2.2110   -1.3320    2.3200 H   0  0  0  0  0  0  0  0  0  0  0  0
    6.8490   -1.8710   -1.6860 H   0  0  0  0  0  0  0  0  0  0  0  0
    6.3010   -0.5830    1.1920 H   0  0  0  0  0  0  0  0  0  0  0  0
    7.1940    0.2040   -0.1310 H   0  0  0  0  0  0  0  0  0  0  0  0
    4.6330    1.2950    1.1410 H   0  0  0  0  0  0  0  0  0  0  0  0
    6.3870    2.1220   -1.1930 H   0  0  0  0  0  0  0  0  0  0  0  0
    4.6390    2.4290   -0.9240 H   0  0  0  0  0  0  0  0  0  0  0  0
    6.5850    4.3460   -0.4350 H   0  0  0  0  0  0  0  0  0  0  0  0
    5.0530    4.2670    0.4860 H   0  0  0  0  0  0  0  0  0  0  0  0
    0.5910   -0.6280   -2.0000 H   0  0  0  0  0  0  0  0  0  0  0  0
   -3.0450    0.4450    0.3050 H   0  0  0  0  0  0  0  0  0  0  0  0
   -4.8420    0.5500    1.4720 H   0  0  0  0  0  0  0  0  0  0  0  0
    3.9380   -1.0450    0.8830 H   0  0  0  0  0  0  0  0  0  0  0  0
    7.2610    3.9960    1.9420 H   0  0  0  0  0  0  0  0  0  0  0  0
 25 26  1  0  0  0  0
 26 32  1  0  0  0  0
 24 25  1  0  0  0  0
 27 32  1  0  0  0  0
  5 19  1  0  0  0  0
 24 27  1  0  0  0  0
 27 37  2  0  0  0  0
 23 24  1  0  0  0  0
 22 36  2  0  0  0  0
  8 23  1  0  0  0  0
  4 19  1  0  0  0  0
  8 22  1  0  0  0  0
  8 31  1  0  0  0  0
 12 19  1  0  0  0  0
  9 33  2  0  0  0  0
 11 12  1  0  0  0  0
 12 29  1  0  0  0  0
  9 31  1  0  0  0  0
  9 10  1  0  0  0  0
 11 35  2  0  0  0  0
 11 28  1  0  0  0  0
 10 28  1  0  0  0  0
 10 20  1  0  0  0  0
  1 15  1  0  0  0  0
  1 14  2  0  0  0  0
 15 16  2  0  0  0  0
  2 16  1  0  0  0  0
 13 29  1  0  0  0  0
  6 20  1  0  0  0  0
 15 18  1  0  0  0  0
  2 17  2  0  0  0  0
 13 14  1  0  0  0  0
 14 30  1  0  0  0  0
 13 34  2  0  0  0  0
 18 30  1  0  0  0  0
  3 18  2  0  0  0  0
  6 21  1  0  0  0  0
  6  7  1  0  0  0  0
  3 17  1  0  0  0  0
  1 38  1  0  0  0  0
  2 39  1  0  0  0  0
  3 40  1  0  0  0  0
  4 41  1  0  0  0  0
  4 42  1  0  0  0  0
  4 43  1  0  0  0  0
  5 44  1  0  0  0  0
  5 45  1  0  0  0  0
  5 46  1  0  0  0  0
  6 47  1  0  0  0  0
  7 48  1  0  0  0  0
  7 49  1  0  0  0  0
  7 50  1  0  0  0  0
  8 51  1  0  0  0  0
 10 52  1  0  0  0  0
 12 53  1  0  0  0  0
 16 54  1  0  0  0  0
 17 55  1  0  0  0  0
 19 56  1  0  0  0  0
 20 57  1  0  0  0  0
 20 58  1  0  0  0  0
 21 59  1  0  0  0  0
 21 60  1  0  0  0  0
 21 61  1  0  0  0  0
 22 62  1  0  0  0  0
 23 63  1  0  0  0  0
 23 64  1  0  0  0  0
 24 65  1  0  0  0  0
 25 66  1  0  0  0  0
 25 67  1  0  0  0  0
 26 68  1  0  0  0  0
 26 69  1  0  0  0  0
 28 70  1  0  0  0  0
 29 71  1  0  0  0  0
 30 72  1  0  0  0  0
 31 73  1  0  0  0  0
 32 74  1  0  0  0  0
M  END
> <OPENEYE_ISO_SMILES>
CC(C)C[C@@H](C(=O)N[C@@H](C[C@@H]1CCNC1=O)C=O)NC(=O)[C@H](C(C)C)NC(=O)c2cc3ccccc3[nH]2

> <OPENEYE_INCHI>
InChI=1S/C27H37N5O5/c1-15(2)11-21(25(35)29-19(14-33)12-18-9-10-28-24(18)34)31-27(37)23(16(3)4)32-26(36)22-13-17-7-5-6-8-20(17)30-22/h5-8,13-16,18-19,21,23,30H,9-12H2,1-4H3,(H,28,34)(H,29,35)(H,31,37)(H,32,36)/t18-,19-,21-,23-/m0/s1

> <OPENEYE_INCHIKEY>
BRIFXLOFHLLUBS-YDWJEQILSA-N

> <FORMULA>
C27H37N5O5

$$$$
