@<TRIPOS>MOLECULE
/home/pku/3cl/gett_pdb/7S72/7S72_mol2/ligand/7S72_8I0.pdb
 46 49 0 0 0
SMALL
GASTEIGER

@<TRIPOS>ATOM
      1  C1       -14.2710  -10.7020  -16.5380 C.2   401  8I0401      0.2739
      2  C10      -14.0950   -7.7170  -21.8000 C.ar  401  8I0401     -0.0003
      3  C11       -9.9920  -18.0230  -18.0230 C.3   401  8I0401      0.1727
      4  C12      -10.1880  -16.8050  -17.1600 C.2   401  8I0401      0.2459
      5  C13       -8.4730  -15.5700  -18.5660 C.3   401  8I0401      0.0939
      6  C14       -9.7220  -14.4800  -16.8120 C.3   401  8I0401      0.1535
      7  C15      -11.0960  -14.0400  -17.1930 C.2   401  8I0401      0.2595
      8  C16       -7.9220  -14.1480  -18.4370 C.3   401  8I0401      0.0220
      9  C17      -13.0820  -12.8750  -16.4170 C.3   401  8I0401      0.1351
     10  C18       -7.2270  -13.8480  -17.1040 C.3   401  8I0401      0.0037
     11  C19      -14.0550  -13.6530  -15.5230 C.3   401  8I0401      0.0340
     12  C2       -14.2680   -9.1180  -19.8390 C.ar  401  8I0401     -0.0006
     13  C20      -14.0150  -15.1300  -15.8800 C.3   401  8I0401      0.0818
     14  C21      -14.7650  -15.3780  -17.1820 C.3   401  8I0401      0.0326
     15  C22      -16.0810  -16.0460  -16.7880 C.3   401  8I0401      0.1156
     16  C23       -6.7430  -15.1200  -16.4000 C.3   401  8I0401      0.0001
     17  C24      -14.7930  -15.9080  -14.8790 C.2   401  8I0401      0.2410
     18  C25       -6.1840  -12.7360  -17.2120 C.3   401  8I0401      0.0001
     19  C26      -10.7420  -19.4380  -19.8910 C.3   401  8I0401      0.0022
     20  C27       -5.4460  -20.1240  -16.6530 C.3   401  8I0401      0.0218
     21  C28       -6.9260  -22.0910  -17.2820 C.3   401  8I0401      0.0218
     22  C29       -6.3960  -21.6330  -14.9460 C.3   401  8I0401      0.0218
     23  C3       -15.0410   -9.6060  -18.6430 C.3   401  8I0401      0.1415
     24  C30      -11.2010  -18.4620  -18.8370 C.3   401  8I0401      0.0270
     25  C31      -11.8570  -17.2610  -19.5020 C.3   401  8I0401      0.0022
     26  C32      -12.1810  -19.2260  -17.9690 C.3   401  8I0401      0.0022
     27  C33      -14.8310   -8.1720  -20.7020 C.ar  401  8I0401     -0.0026
     28  C34       -8.6940  -13.4730  -17.3160 C.3   401  8I0401      0.0289
     29  C4       -12.9750   -9.6060  -20.0840 C.ar  401  8I0401     -0.0026
     30  C5       -12.2480   -9.1560  -21.1920 C.ar  401  8I0401     -0.0003
     31  C6       -12.8080   -8.2100  -22.0550 C.ar  401  8I0401     -0.0000
     32  C7        -6.6600  -20.9680  -16.2870 C.3   401  8I0401      0.0804
     33  C8       -13.0220  -11.3840  -16.0770 C.3   401  8I0401      0.2487
     34  C9        -8.3660  -19.5060  -17.3060 C.2   401  8I0401      0.3395
     35  N10       -9.6060  -19.0980  -17.1670 N.am  401  8I0401     -0.1796
     36  N13       -9.4930  -15.7150  -17.5250 N.am  401  8I0401     -0.2716
     37  N16      -11.7820  -13.4780  -16.2110 N.am  401  8I0401     -0.2027
     38  N2       -14.1050   -9.8310  -17.5570 N.am  401  8I0401     -0.1984
     39  N23      -15.9740  -16.2740  -15.3570 N.am  401  8I0401     -0.2054
     40  N8        -7.7910  -20.0610  -16.2330 N.am  401  8I0401     -0.1906
     41  O1       -11.8860  -10.7100  -16.6390 O.3   401  8I0401     -0.2113
     42  O26      -14.3500  -16.1720  -13.7830 O.2   401  8I0401     -0.2734
     43  O29       -7.8320  -19.3510  -18.3950 O.2   401  8I0401     -0.2492
     44  O33      -10.9130  -16.8490  -16.1590 O.2   401  8I0401     -0.2730
     45  O38      -11.5220  -14.2120  -18.3290 O.2   401  8I0401     -0.2716
     46  O5       -15.3150  -10.9640  -15.9440 O.2   401  8I0401     -0.2705
@<TRIPOS>BOND
     1    31     2   ar
     2    31    30   ar
     3     2    27   ar
     4    30    29   ar
     5    27    12   ar
     6    29    12   ar
     7    19    24    1
     8    12    23    1
     9    25    24    1
    10    24     3    1
    11    24    26    1
    12    23    38    1
    13     5     8    1
    14     5    36    1
    15     8    28    1
    16     8    10    1
    17    43    34    2
    18    45     7    2
    19     3    35    1
    20     3     4    1
    21    38     1   am
    22    36     4   am
    23    36     6    1
    24    28    10    1
    25    28     6    1
    26    34    35   am
    27    34    40   am
    28    21    32    1
    29    18    10    1
    30     7     6    1
    31     7    37   am
    32    14    15    1
    33    14    13    1
    34     4    44    2
    35    10    16    1
    36    15    39    1
    37    20    32    1
    38    41    33    1
    39     1    33    1
    40     1    46    2
    41     9    37    1
    42     9    33    1
    43     9    11    1
    44    32    40    1
    45    32    22    1
    46    13    11    1
    47    13    17    1
    48    39    17   am
    49    17    42    2
