@<TRIPOS>MOLECULE
/home/pku/3cl/gett_pdb/7K0G/7K0G_mol2/ligand/7K0G_K36.pdb
 29 30 0 0 0
SMALL
GASTEIGER

@<TRIPOS>ATOM
      1  C7        14.8270   19.2510    6.6710 C.3   401  K36401      0.2368
      2  O8        15.5060   19.6730    7.8710 O.3   401  K36401     -0.4285
      3  C9        15.4600   18.8710    9.0050 C.2   401  K36401      0.4218
      4  O10       14.9510   17.7660    8.9780 O.2   401  K36401     -0.2245
      5  C1        13.3370   19.5690    6.6450 C.ar  401  K36401      0.0213
      6  C2        12.7480   20.3990    7.5930 C.ar  401  K36401     -0.0007
      7  C3        11.3800   20.7000    7.5840 C.ar  401  K36401     -0.0002
      8  C4        10.5350   20.1730    6.6180 C.ar  401  K36401     -0.0000
      9  C5        11.0930   19.3380    5.6560 C.ar  401  K36401     -0.0002
     10  C6        12.4620   19.0420    5.6720 C.ar  401  K36401     -0.0007
     11  N11       16.0360   19.3900   10.1920 N.am  401  K36401     -0.1611
     12  C12       15.9730   18.6160   11.4150 C.3   401  K36401      0.1761
     13  C17       14.4530   18.5910   11.8860 C.2   401  K36401      0.2614
     14  O18       13.7450   19.5810   11.7200 O.2   401  K36401     -0.2715
     15  C13       16.8650   19.1740   12.5640 C.3   401  K36401      0.0312
     16  C14       18.3660   19.3280   12.1990 C.3   401  K36401      0.0022
     17  C15       19.2680   19.8930   13.3310 C.3   401  K36401      0.0001
     18  C16       18.9560   17.9970   11.7090 C.3   401  K36401      0.0001
     19  N19       13.9290   17.4930   12.4960 N.am  401  K36401     -0.2030
     20  C20       12.5520   17.3810   12.9660 C.3   401  K36401      0.1287
     21  C21       12.5140   16.9280   14.4350 C.3   401  K36401      0.2036
     22  O22       11.1570   16.8340   14.7970 O.3   401  K36401     -0.2185
     23  C24       11.7580   16.3830   12.0780 C.3   401  K36401      0.0339
     24  C25       11.7140   16.7660   10.5700 C.3   401  K36401      0.0861
     25  C26       10.8590   18.0200   10.3460 C.3   401  K36401      0.0534
     26  C27        9.9030   17.7310    9.1920 C.2   401  K36401      0.0627
     27  N28       10.0080   16.3010    8.9530 N.am  401  K36401     -0.1826
     28  C29       11.0120   15.7050    9.7170 C.2   401  K36401      0.2453
     29  O30       11.2580   14.5080    9.6560 O.2   401  K36401     -0.2730
@<TRIPOS>BOND
     1     9    10   ar
     2     9     8   ar
     3    10     5   ar
     4     8     7   ar
     5     5     1    1
     6     5     6   ar
     7     1     2    1
     8     7     6   ar
     9     2     3    1
    10    27    26    2
    11    27    28    1
    12     4     3    2
    13     3    11   am
    14    26    25    1
    15    29    28    2
    16    28    24    1
    17    11    12    1
    18    25    24    1
    19    24    23    1
    20    12    13    1
    21    12    15    1
    22    18    16    1
    23    14    13    2
    24    13    19   am
    25    23    20    1
    26    16    15    1
    27    16    17    1
    28    19    20    1
    29    20    21    1
    30    21    22    1
