@<TRIPOS>MOLECULE
/home/pku/3cl/gett_pdb/7BQ7/7BQ7_mol2/ligand/7BQ7_SAM.pdb
 27 29 0 0 0
SMALL
GASTEIGER

@<TRIPOS>ATOM
      1  N        -86.7240   19.4480   24.4840 N.3   301  SAM301     -0.1208
      2  CA       -88.0150   19.0560   24.9550 C.3   301  SAM301      0.1952
      3  C        -89.0120   19.9220   24.2790 C.2   301  SAM301      0.3819
      4  O        -88.8280   20.2210   23.0990 O.co2 301  SAM301     -0.2441
      5  OXT      -89.9910   20.2950   24.9140 O.co2 301  SAM301     -0.2441
      6  CB       -88.0640   19.2140   26.4560 C.3   301  SAM301      0.0414
      7  CG       -86.8730   18.4920   27.0470 C.3   301  SAM301      0.0503
      8  SD       -87.1340   18.0220   28.5950 S.3   301  SAM301     -0.1761
      9  CE       -87.4160   19.3460   29.4990 C.3   301  SAM301      0.0590
     10  C5'      -85.7710   17.3010   29.2110 C.3   301  SAM301      0.0805
     11  C4'      -85.4830   15.9710   28.5360 C.3   301  SAM301      0.1602
     12  O4'      -84.1650   15.5220   28.7720 O.3   301  SAM301     -0.3324
     13  C3'      -86.3930   14.8870   29.0490 C.3   301  SAM301      0.2144
     14  O3'      -87.2220   14.5060   27.9710 O.3   301  SAM301     -0.2176
     15  C2'      -85.4550   13.7890   29.4780 C.3   301  SAM301      0.2336
     16  O2'      -85.9480   12.5150   29.1300 O.3   301  SAM301     -0.2155
     17  C1'      -84.1720   14.1140   28.7700 C.3   301  SAM301      0.2409
     18  N9       -83.0320   13.5050   29.4770 N.ar  301  SAM301     -0.2693
     19  C8       -82.6670   13.7060   30.7300 C.ar  301  SAM301      0.1816
     20  N7       -81.6030   12.9660   31.0430 N.ar  301  SAM301     -0.2193
     21  C5       -81.2700   12.2650   29.9790 C.ar  301  SAM301      0.1518
     22  C6       -80.2460   11.2790   29.6190 C.ar  301  SAM301      0.1919
     23  N6       -79.3170   10.8760   30.4780 N.pl3 301  SAM301     -0.1054
     24  N1       -80.2550   10.7890   28.3950 N.ar  301  SAM301     -0.2040
     25  C2       -81.1550   11.1580   27.5170 C.ar  301  SAM301      0.2016
     26  N3       -82.1050   12.0400   27.7710 N.ar  301  SAM301     -0.2048
     27  C4       -82.2200   12.6180   28.9590 C.ar  301  SAM301      0.1692
@<TRIPOS>BOND
     1     4     3   ar
     2     3     5   ar
     3     3     2    1
     4     1     2    1
     5     2     6    1
     6     6     7    1
     7     7     8    1
     8    25    26   ar
     9    25    24   ar
    10    26    27   ar
    11    14    13    1
    12    24    22   ar
    13    11    12    1
    14    11    13    1
    15    11    10    1
    16     8    10    1
    17     8     9    1
    18    17    12    1
    19    17    18    1
    20    17    15    1
    21    27    18   ar
    22    27    21   ar
    23    13    15    1
    24    16    15    1
    25    18    19   ar
    26    22    21   ar
    27    22    23    1
    28    21    20   ar
    29    19    20   ar
