G65
  -OEChem-02242320023D

 66 70  0     0  0  0  0  0  0999 V2000
   -6.7610   -1.4650    0.9110 C   0  0  0  0  0  0  0  0  0  0  0  0
   -7.8670   -0.9590    1.8400 C   0  0  0  0  0  0  0  0  0  0  0  0
   -9.1250   -1.6510    1.5230 N   0  0  0  0  0  0  0  0  0  0  0  0
  -10.1950   -1.2470    2.4450 C   0  0  0  0  0  0  0  0  0  0  0  0
   -9.5150   -1.4140    0.1260 C   0  0  0  0  0  0  0  0  0  0  0  0
   -8.4100   -1.9210   -0.8030 C   0  0  0  0  0  0  0  0  0  0  0  0
   -7.1520   -1.2290   -0.4860 N   0  0  0  0  0  0  0  0  0  0  0  0
   -6.0820   -1.6330   -1.4080 C   0  0  0  0  0  0  0  0  0  0  0  0
   -4.8880   -0.7350   -1.2160 C   0  0  0  0  0  0  0  0  0  0  0  0
   -3.9100   -1.0750   -0.2980 C   0  0  0  0  0  0  0  0  0  0  0  0
   -2.8140   -0.2570   -0.1170 C   0  0  0  0  0  0  0  0  0  0  0  0
   -4.7710    0.4240   -1.9630 C   0  0  0  0  0  0  0  0  0  0  0  0
   -3.6800    1.2510   -1.7930 C   0  0  0  0  0  0  0  0  0  0  0  0
   -2.6930    0.9160   -0.8640 C   0  0  0  0  0  0  0  0  0  0  0  0
   -1.5210    1.7980   -0.6760 C   0  0  0  0  0  0  0  0  0  0  0  0
   -1.4160    2.8170   -1.3310 O   0  0  0  0  0  0  0  0  0  0  0  0
   -0.5700    1.4720    0.2220 N   0  0  0  0  0  0  0  0  0  0  0  0
    0.5850    2.2530    0.3310 C   0  0  0  0  0  0  0  0  0  0  0  0
    1.8060    1.6520    0.6030 C   0  0  0  0  0  0  0  0  0  0  0  0
    0.5130    3.6300    0.1600 C   0  0  0  0  0  0  0  0  0  0  0  0
    1.6530    4.4020    0.2680 C   0  0  0  0  0  0  0  0  0  0  0  0
    2.8700    3.8080    0.5440 C   0  0  0  0  0  0  0  0  0  0  0  0
    4.1110    4.6540    0.6610 C   0  0  0  0  0  0  0  0  0  0  0  0
    2.9500    2.4310    0.7100 C   0  0  0  0  0  0  0  0  0  0  0  0
    4.1820    1.8300    0.9840 N   0  0  0  0  0  0  0  0  0  0  0  0
    4.5350    0.6510    0.3470 C   0  0  0  0  0  0  0  0  0  0  0  0
    5.5950   -0.0520    0.6040 N   0  0  0  0  0  0  0  0  0  0  0  0
    3.6110   -0.1300   -0.9320 S   0  0  0  0  0  0  0  0  0  0  0  0
    4.8090   -1.4190   -1.0160 C   0  0  0  0  0  0  0  0  0  0  0  0
    5.7700   -1.1610   -0.1120 C   0  0  0  0  0  0  0  0  0  0  0  0
    6.9390   -2.0530    0.0800 C   0  0  0  0  0  0  0  0  0  0  0  0
    7.9170   -1.7480    1.0310 C   0  0  0  0  0  0  0  0  0  0  0  0
    8.9880   -2.6130    1.1720 C   0  0  0  0  0  0  0  0  0  0  0  0
    9.0570   -3.7410    0.3740 C   0  0  0  0  0  0  0  0  0  0  0  0
    8.1190   -4.0020   -0.5160 N   0  0  0  0  0  0  0  0  0  0  0  0
    7.0780   -3.2130   -0.6810 C   0  0  0  0  0  0  0  0  0  0  0  0
   -5.8350   -0.9330    1.1240 H   0  0  0  0  0  0  0  0  0  0  0  0
   -6.6120   -2.5330    1.0710 H   0  0  0  0  0  0  0  0  0  0  0  0
   -7.5930   -1.1600    2.8750 H   0  0  0  0  0  0  0  0  0  0  0  0
   -7.9970    0.1140    1.6990 H   0  0  0  0  0  0  0  0  0  0  0  0
  -10.3570   -0.1720    2.3640 H   0  0  0  0  0  0  0  0  0  0  0  0
  -11.1140   -1.7730    2.1880 H   0  0  0  0  0  0  0  0  0  0  0  0
   -9.9070   -1.4940    3.4670 H   0  0  0  0  0  0  0  0  0  0  0  0
  -10.4420   -1.9470   -0.0870 H   0  0  0  0  0  0  0  0  0  0  0  0
   -9.6650   -0.3470   -0.0340 H   0  0  0  0  0  0  0  0  0  0  0  0
   -8.2790   -2.9940   -0.6620 H   0  0  0  0  0  0  0  0  0  0  0  0
   -8.6840   -1.7200   -1.8380 H   0  0  0  0  0  0  0  0  0  0  0  0
   -5.7970   -2.6650   -1.2030 H   0  0  0  0  0  0  0  0  0  0  0  0
   -6.4370   -1.5510   -2.4350 H   0  0  0  0  0  0  0  0  0  0  0  0
   -4.0060   -1.9830    0.2790 H   0  0  0  0  0  0  0  0  0  0  0  0
   -2.0520   -0.5230    0.6000 H   0  0  0  0  0  0  0  0  0  0  0  0
   -5.5350    0.6820   -2.6810 H   0  0  0  0  0  0  0  0  0  0  0  0
   -3.5890    2.1550   -2.3770 H   0  0  0  0  0  0  0  0  0  0  0  0
   -0.6870    0.6970    0.7920 H   0  0  0  0  0  0  0  0  0  0  0  0
    1.8650    0.5820    0.7310 H   0  0  0  0  0  0  0  0  0  0  0  0
   -0.4360    4.0980   -0.0560 H   0  0  0  0  0  0  0  0  0  0  0  0
    1.5940    5.4720    0.1350 H   0  0  0  0  0  0  0  0  0  0  0  0
    4.2380    4.9730    1.6950 H   0  0  0  0  0  0  0  0  0  0  0  0
    4.9790    4.0710    0.3520 H   0  0  0  0  0  0  0  0  0  0  0  0
    4.0160    5.5300    0.0190 H   0  0  0  0  0  0  0  0  0  0  0  0
    4.7900    2.2380    1.6210 H   0  0  0  0  0  0  0  0  0  0  0  0
    4.7790   -2.2690   -1.6820 H   0  0  0  0  0  0  0  0  0  0  0  0
    7.8380   -0.8600    1.6410 H   0  0  0  0  0  0  0  0  0  0  0  0
    9.7630   -2.4090    1.8970 H   0  0  0  0  0  0  0  0  0  0  0  0
    9.8920   -4.4170    0.4810 H   0  0  0  0  0  0  0  0  0  0  0  0
    6.3310   -3.4600   -1.4210 H   0  0  0  0  0  0  0  0  0  0  0  0
  5  6  1  0  0  0  0
  6  7  1  0  0  0  0
  3  5  1  0  0  0  0
  7  8  1  0  0  0  0
  8  9  1  0  0  0  0
  9 12  2  0  0  0  0
 12 13  1  0  0  0  0
  3  4  1  0  0  0  0
  2  3  1  0  0  0  0
  1  7  1  0  0  0  0
  9 10  1  0  0  0  0
 13 14  2  0  0  0  0
  1  2  1  0  0  0  0
 10 11  2  0  0  0  0
 11 14  1  0  0  0  0
 14 15  1  0  0  0  0
 15 16  2  0  0  0  0
 15 17  1  0  0  0  0
 28 29  1  0  0  0  0
 29 30  2  0  0  0  0
 17 18  1  0  0  0  0
 26 28  1  0  0  0  0
 35 36  2  0  0  0  0
 34 35  1  0  0  0  0
 31 36  1  0  0  0  0
 30 31  1  0  0  0  0
 31 32  2  0  0  0  0
 33 34  2  0  0  0  0
 27 30  1  0  0  0  0
 32 33  1  0  0  0  0
 18 19  2  0  0  0  0
 19 24  1  0  0  0  0
 26 27  2  0  0  0  0
 25 26  1  0  0  0  0
 18 20  1  0  0  0  0
 24 25  1  0  0  0  0
 22 24  2  0  0  0  0
 20 21  2  0  0  0  0
 21 22  1  0  0  0  0
 22 23  1  0  0  0  0
  1 37  1  0  0  0  0
  1 38  1  0  0  0  0
  2 39  1  0  0  0  0
  2 40  1  0  0  0  0
  4 41  1  0  0  0  0
  4 42  1  0  0  0  0
  4 43  1  0  0  0  0
  5 44  1  0  0  0  0
  5 45  1  0  0  0  0
  6 46  1  0  0  0  0
  6 47  1  0  0  0  0
  8 48  1  0  0  0  0
  8 49  1  0  0  0  0
 10 50  1  0  0  0  0
 11 51  1  0  0  0  0
 12 52  1  0  0  0  0
 13 53  1  0  0  0  0
 17 54  1  0  0  0  0
 19 55  1  0  0  0  0
 20 56  1  0  0  0  0
 21 57  1  0  0  0  0
 23 58  1  0  0  0  0
 23 59  1  0  0  0  0
 23 60  1  0  0  0  0
 25 61  1  0  0  0  0
 29 62  1  0  0  0  0
 32 63  1  0  0  0  0
 33 64  1  0  0  0  0
 34 65  1  0  0  0  0
 36 66  1  0  0  0  0
M  END
> <OPENEYE_ISO_SMILES>
Cc1ccc(cc1Nc2nc(cs2)c3cccnc3)NC(=O)c4ccc(cc4)CN5CCN(CC5)C

> <OPENEYE_INCHI>
InChI=1S/C28H30N6OS/c1-20-5-10-24(16-25(20)31-28-32-26(19-36-28)23-4-3-11-29-17-23)30-27(35)22-8-6-21(7-9-22)18-34-14-12-33(2)13-15-34/h3-11,16-17,19H,12-15,18H2,1-2H3,(H,30,35)(H,31,32)

> <OPENEYE_INCHIKEY>
WJEOLQLKVOPQFV-UHFFFAOYSA-N

> <FORMULA>
C28H30N6OS

$$$$
