@<TRIPOS>MOLECULE
/home/pku/3cl/gett_pdb/5RUH/5RUH_mol2/ligand/5RUH_KNL.pdb
 18 18 0 0 0
SMALL
GASTEIGER

@<TRIPOS>ATOM
      1 CL1       -43.2720  -35.3560   -1.9640 Cl    201  KNL201     -0.0797
      2  O1       -42.8060  -31.6070    2.7330 O.co2 201  KNL201     -0.5463
      3  O2       -43.4260  -32.8360   -0.5820 O.3   201  KNL201     -0.4833
      4 CL2       -45.9360  -31.5290    0.8710 Cl    201  KNL201     -0.0797
      5  O3       -43.2410  -33.6020    1.9750 O.co2 201  KNL201     -0.5463
      6  C1       -43.0560  -32.3980    1.7900 C.2   201  KNL201      0.0789
      7  C2       -43.1090  -31.8640    0.3850 C.3   201  KNL201      0.1288
      8  C3       -46.9670  -35.0520   -0.6440 C.ar  201  KNL201     -0.0588
      9  C4       -45.8390  -35.5100   -1.2250 C.ar  201  KNL201     -0.0397
     10  C5       -44.7020  -34.7410   -1.1970 C.ar  201  KNL201      0.0840
     11  C6       -44.6550  -33.5180   -0.5740 C.ar  201  KNL201      0.1575
     12  C7       -45.8120  -33.0850    0.0210 C.ar  201  KNL201      0.0840
     13  C8       -46.9480  -33.8420   -0.0090 C.ar  201  KNL201     -0.0397
     14  H2       -42.2090  -31.5660    0.1780 H     201  KNL201      0.0760
     15  H3       -43.6700  -31.0840    0.3110 H     201  KNL201      0.0760
     16  H4       -47.7450  -35.5610   -0.6630 H     201  KNL201      0.0618
     17  H5       -45.8380  -36.3300   -1.6630 H     201  KNL201      0.0633
     18  H6       -47.7230  -33.5230    0.3950 H     201  KNL201      0.0633
@<TRIPOS>UNITY_ATOM_ATTR
2 1
charge -1
@<TRIPOS>BOND
     1     1    10    1
     2    17     9    1
     3     9    10   ar
     4     9     8   ar
     5    10    11   ar
     6    16     8    1
     7     8    13   ar
     8     3    11    1
     9     3     7    1
    10    11    12   ar
    11    13    12   ar
    12    13    18    1
    13    12     4    1
    14    14     7    1
    15    15     7    1
    16     7     6    1
    17     6     5   ar
    18     6     2   ar
