W41
  -OEChem-02242320043D

 12 13  0     0  0  0  0  0  0999 V2000
   -3.0750    0.5310    0.0000 N   0  0  0  0  0  0  0  0  0  0  0  0
   -0.9120    0.6050   -0.0000 N   0  0  0  0  0  0  0  0  0  0  0  0
    3.0320    0.3670    0.0000 Cl  0  0  0  0  0  0  0  0  0  0  0  0
    1.3450   -0.0420    0.0000 C   0  0  0  0  0  0  0  0  0  0  0  0
    0.4480    0.9130   -0.0000 N   0  0  0  0  0  0  0  0  0  0  0  0
   -2.0890    1.3640    0.0000 N   0  0  0  0  0  0  0  0  0  0  0  0
   -2.6490   -0.6820   -0.0000 N   0  0  0  0  0  0  0  0  0  0  0  0
   -1.3240   -0.7010   -0.0000 C   0  0  0  0  0  0  0  0  0  0  0  0
   -0.3600   -1.7240   -0.0000 C   0  0  0  0  0  0  0  0  0  0  0  0
    0.9600   -1.3890    0.0000 C   0  0  0  0  0  0  0  0  0  0  0  0
   -0.6620   -2.7610    0.0000 H   0  0  0  0  0  0  0  0  0  0  0  0
    1.7120   -2.1640   -0.0000 H   0  0  0  0  0  0  0  0  0  0  0  0
  1  6  2  0  0  0  0
  2  6  1  0  0  0  0
  1  7  1  0  0  0  0
  2  5  1  0  0  0  0
  2  8  1  0  0  0  0
  7  8  2  0  0  0  0
  4  5  2  0  0  0  0
  8  9  1  0  0  0  0
  3  4  1  0  0  0  0
  4 10  1  0  0  0  0
  9 10  2  0  0  0  0
  9 11  1  0  0  0  0
 10 12  1  0  0  0  0
M  END
> <OPENEYE_ISO_SMILES>
c1cc(nn2c1nnn2)Cl

> <OPENEYE_INCHI>
InChI=1S/C4H2ClN5/c5-3-1-2-4-6-8-9-10(4)7-3/h1-2H

> <OPENEYE_INCHIKEY>
RRBQGBYFXZPPAH-UHFFFAOYSA-N

> <FORMULA>
C4H2ClN5

$$$$
