VHV
  -OEChem-02242320043D

 76 77  0     1  0  0  0  0  0999 V2000
    9.5570   -1.0960    1.9450 C   0  0  0  0  0  0  0  0  0  0  0  0
    1.7470    0.6110   -1.2060 C   0  0  2  0  0  0  0  0  0  0  0  0
    0.5470    0.6970   -0.2990 C   0  0  0  0  0  0  0  0  0  0  0  0
   -1.8350    1.0670    0.0620 C   0  0  2  0  0  0  0  0  0  0  0  0
   -3.0620    0.8810   -0.7920 C   0  0  0  0  0  0  0  0  0  0  0  0
   -5.3510    0.1030   -1.0980 C   0  0  1  0  0  0  0  0  0  0  0  0
   -6.2230   -0.9580   -0.4250 C   0  0  0  0  0  0  0  0  0  0  0  0
    9.1060   -1.8560    0.8820 C   0  0  0  0  0  0  0  0  0  0  0  0
   -5.4460   -2.2730   -0.3300 C   0  0  2  0  0  0  0  0  0  0  0  0
   -6.3180   -3.3720    0.3190 C   0  0  0  0  0  0  0  0  0  0  0  0
   -5.9080   -3.2620    1.8050 C   0  0  0  0  0  0  0  0  0  0  0  0
   -4.2710   -2.1260    0.6120 C   0  0  0  0  0  0  0  0  0  0  0  0
    8.1270   -1.3580    0.0420 C   0  0  0  0  0  0  0  0  0  0  0  0
    1.4650   -0.3880   -2.3310 C   0  0  0  0  0  0  0  0  0  0  0  0
    2.6840   -0.4750   -3.2520 C   0  0  0  0  0  0  0  0  0  0  0  0
    1.1810   -1.7660   -1.7290 C   0  0  0  0  0  0  0  0  0  0  0  0
   -1.9390    2.3890    0.8250 C   0  0  0  0  0  0  0  0  0  0  0  0
   -3.1500    2.3430    1.7600 C   0  0  0  0  0  0  0  0  0  0  0  0
   -2.9180    1.2900    2.8450 C   0  0  0  0  0  0  0  0  0  0  0  0
   -3.3420    3.7140    2.4130 C   0  0  0  0  0  0  0  0  0  0  0  0
    7.5980   -0.1010    0.2670 C   0  0  0  0  0  0  0  0  0  0  0  0
    8.0480    0.6590    1.3310 C   0  0  0  0  0  0  0  0  0  0  0  0
    9.0280    0.1610    2.1690 C   0  0  0  0  0  0  0  0  0  0  0  0
    6.5310    0.4430   -0.6490 C   0  0  0  0  0  0  0  0  0  0  0  0
   -6.1700    1.3790   -1.3060 C   0  0  0  0  0  0  0  0  0  0  0  0
    4.1540    0.4780   -0.8510 C   0  0  0  0  0  0  0  0  0  0  0  0
    2.9100    0.1650   -0.4360 N   0  0  0  0  0  0  0  0  0  0  0  0
   -0.6450    1.0890   -0.7920 N   0  0  0  0  0  0  0  0  0  0  0  0
   -4.1960    0.3970   -0.2470 N   0  0  0  0  0  0  0  0  0  0  0  0
   -4.5550   -2.6930    1.7970 N   0  0  0  0  0  0  0  0  0  0  0  0
   -3.2250   -1.5760    0.3380 O   0  0  0  0  0  0  0  0  0  0  0  0
    4.3100    1.1320   -1.8630 O   0  0  0  0  0  0  0  0  0  0  0  0
    0.6530    0.4140    0.8760 O   0  0  0  0  0  0  0  0  0  0  0  0
   -3.0310    1.1670   -1.9700 O   0  0  0  0  0  0  0  0  0  0  0  0
    5.2230    0.0680   -0.1430 O   0  0  0  0  0  0  0  0  0  0  0  0
   -6.7190    1.8010   -0.0560 O   0  0  0  0  0  0  0  0  0  0  0  0
   10.3190   -1.4870    2.6030 H   0  0  0  0  0  0  0  0  0  0  0  0
    1.9490    1.5930   -1.6350 H   0  0  0  0  0  0  0  0  0  0  0  0
   -1.7570    0.2430    0.7710 H   0  0  0  0  0  0  0  0  0  0  0  0
   -5.0060   -0.2680   -2.0630 H   0  0  0  0  0  0  0  0  0  0  0  0
   -6.4950   -0.6240    0.5760 H   0  0  0  0  0  0  0  0  0  0  0  0
   -7.1270   -1.1130   -1.0140 H   0  0  0  0  0  0  0  0  0  0  0  0
    9.5190   -2.8380    0.7060 H   0  0  0  0  0  0  0  0  0  0  0  0
   -5.1060   -2.5860   -1.3180 H   0  0  0  0  0  0  0  0  0  0  0  0
   -7.3780   -3.1560    0.1900 H   0  0  0  0  0  0  0  0  0  0  0  0
   -6.0700   -4.3540   -0.0820 H   0  0  0  0  0  0  0  0  0  0  0  0
   -6.5920   -2.6020    2.3370 H   0  0  0  0  0  0  0  0  0  0  0  0
   -5.8990   -4.2490    2.2670 H   0  0  0  0  0  0  0  0  0  0  0  0
    7.7750   -1.9510   -0.7890 H   0  0  0  0  0  0  0  0  0  0  0  0
    0.6000   -0.0560   -2.9040 H   0  0  0  0  0  0  0  0  0  0  0  0
    2.4830   -1.1870   -4.0530 H   0  0  0  0  0  0  0  0  0  0  0  0
    2.8870    0.5060   -3.6800 H   0  0  0  0  0  0  0  0  0  0  0  0
    3.5490   -0.8070   -2.6790 H   0  0  0  0  0  0  0  0  0  0  0  0
    0.3130   -1.7030   -1.0730 H   0  0  0  0  0  0  0  0  0  0  0  0
    0.9800   -2.4770   -2.5300 H   0  0  0  0  0  0  0  0  0  0  0  0
    2.0460   -2.0980   -1.1560 H   0  0  0  0  0  0  0  0  0  0  0  0
   -1.0330    2.5430    1.4110 H   0  0  0  0  0  0  0  0  0  0  0  0
   -2.0580    3.2090    0.1170 H   0  0  0  0  0  0  0  0  0  0  0  0
   -4.0410    2.0850    1.1880 H   0  0  0  0  0  0  0  0  0  0  0  0
   -3.7910    1.2380    3.4940 H   0  0  0  0  0  0  0  0  0  0  0  0
   -2.7540    0.3180    2.3780 H   0  0  0  0  0  0  0  0  0  0  0  0
   -2.0420    1.5620    3.4340 H   0  0  0  0  0  0  0  0  0  0  0  0
   -3.5080    4.4640    1.6400 H   0  0  0  0  0  0  0  0  0  0  0  0
   -4.2050    3.6810    3.0780 H   0  0  0  0  0  0  0  0  0  0  0  0
   -2.4510    3.9720    2.9850 H   0  0  0  0  0  0  0  0  0  0  0  0
    7.6350    1.6410    1.5060 H   0  0  0  0  0  0  0  0  0  0  0  0
    9.3770    0.7530    3.0020 H   0  0  0  0  0  0  0  0  0  0  0  0
    6.6070    1.5290   -0.6910 H   0  0  0  0  0  0  0  0  0  0  0  0
    6.6660    0.0300   -1.6490 H   0  0  0  0  0  0  0  0  0  0  0  0
   -5.5250    2.1640   -1.7030 H   0  0  0  0  0  0  0  0  0  0  0  0
   -6.9780    1.1820   -2.0090 H   0  0  0  0  0  0  0  0  0  0  0  0
    2.7860   -0.3570    0.3720 H   0  0  0  0  0  0  0  0  0  0  0  0
   -0.7140    1.3870   -1.7130 H   0  0  0  0  0  0  0  0  0  0  0  0
   -4.2470    0.2440    0.7100 H   0  0  0  0  0  0  0  0  0  0  0  0
   -3.9440   -2.7230    2.5500 H   0  0  0  0  0  0  0  0  0  0  0  0
   -7.2510    2.6070   -0.1120 H   0  0  0  0  0  0  0  0  0  0  0  0
  8 13  2  0  0  0  0
  1  8  1  0  0  0  0
 13 21  1  0  0  0  0
  1 23  2  0  0  0  0
 18 20  1  0  0  0  0
 26 32  2  0  0  0  0
 21 22  2  0  0  0  0
 21 24  1  0  0  0  0
 22 23  1  0  0  0  0
 14 15  1  0  0  0  0
 14 16  1  0  0  0  0
 17 18  1  0  0  0  0
 18 19  1  0  0  0  0
  4 17  1  0  0  0  0
  2 14  1  0  0  0  0
  2 27  1  0  0  0  0
  2  3  1  0  0  0  0
 24 35  1  0  0  0  0
 26 27  1  0  0  0  0
 26 35  1  0  0  0  0
  3 28  1  0  0  0  0
  4 28  1  0  0  0  0
  5 34  2  0  0  0  0
  3 33  2  0  0  0  0
  4  5  1  0  0  0  0
  5 29  1  0  0  0  0
  6 29  1  0  0  0  0
 10 11  1  0  0  0  0
  9 10  1  0  0  0  0
  6 25  1  0  0  0  0
  6  7  1  0  0  0  0
 11 30  1  0  0  0  0
 25 36  1  0  0  0  0
  7  9  1  0  0  0  0
  9 12  1  0  0  0  0
 12 30  1  0  0  0  0
 12 31  2  0  0  0  0
  1 37  1  0  0  0  0
  2 38  1  0  0  0  0
  4 39  1  0  0  0  0
  6 40  1  0  0  0  0
  7 41  1  0  0  0  0
  7 42  1  0  0  0  0
  8 43  1  0  0  0  0
  9 44  1  0  0  0  0
 10 45  1  0  0  0  0
 10 46  1  0  0  0  0
 11 47  1  0  0  0  0
 11 48  1  0  0  0  0
 13 49  1  0  0  0  0
 14 50  1  0  0  0  0
 15 51  1  0  0  0  0
 15 52  1  0  0  0  0
 15 53  1  0  0  0  0
 16 54  1  0  0  0  0
 16 55  1  0  0  0  0
 16 56  1  0  0  0  0
 17 57  1  0  0  0  0
 17 58  1  0  0  0  0
 18 59  1  0  0  0  0
 19 60  1  0  0  0  0
 19 61  1  0  0  0  0
 19 62  1  0  0  0  0
 20 63  1  0  0  0  0
 20 64  1  0  0  0  0
 20 65  1  0  0  0  0
 22 66  1  0  0  0  0
 23 67  1  0  0  0  0
 24 68  1  0  0  0  0
 24 69  1  0  0  0  0
 25 70  1  0  0  0  0
 25 71  1  0  0  0  0
 27 72  1  0  0  0  0
 28 73  1  0  0  0  0
 29 74  1  0  0  0  0
 30 75  1  0  0  0  0
 36 76  1  0  0  0  0
M  END
> <OPENEYE_ISO_SMILES>
CC(C)C[C@@H](C(=O)N[C@@H](C[C@@H]1CCNC1=O)CO)NC(=O)[C@H](C(C)C)NC(=O)OCc2ccccc2

> <OPENEYE_INCHI>
InChI=1S/C26H40N4O6/c1-16(2)12-21(24(33)28-20(14-31)13-19-10-11-27-23(19)32)29-25(34)22(17(3)4)30-26(35)36-15-18-8-6-5-7-9-18/h5-9,16-17,19-22,31H,10-15H2,1-4H3,(H,27,32)(H,28,33)(H,29,34)(H,30,35)/t19-,20-,21-,22-/m0/s1

> <OPENEYE_INCHIKEY>
GLZAWCKOCLSXEU-CMOCDZPBSA-N

> <FORMULA>
C26H40N4O6

$$$$
