U0Y
  -OEChem-02242320043D

 36 37  0     0  0  0  0  0  0999 V2000
   -2.8430    0.2840    0.3750 N   0  0  0  0  0  0  0  0  0  0  0  0
    1.8900   -0.6480   -0.1120 C   0  0  0  0  0  0  0  0  0  0  0  0
    2.0780    0.4450   -0.9590 C   0  0  0  0  0  0  0  0  0  0  0  0
    3.2140    1.2190   -0.8400 C   0  0  0  0  0  0  0  0  0  0  0  0
    0.6790   -1.4860   -0.2380 C   0  0  0  0  0  0  0  0  0  0  0  0
   -1.7460   -1.7200   -0.4790 C   0  0  0  0  0  0  0  0  0  0  0  0
   -1.6200    1.0970    0.4160 C   0  0  0  0  0  0  0  0  0  0  0  0
   -4.1580    2.3630    0.1120 C   0  0  0  0  0  0  0  0  0  0  0  0
   -0.5220   -0.9080   -0.4380 N   0  0  0  0  0  0  0  0  0  0  0  0
    5.4040    1.7640    0.2410 C   0  0  0  0  0  0  0  0  0  0  0  0
    0.7660   -2.6960   -0.1610 O   0  0  0  0  0  0  0  0  0  0  0  0
    4.1660    0.9140    0.1160 C   0  0  0  0  0  0  0  0  0  0  0  0
   -0.6310    0.5470   -0.6200 C   0  0  0  0  0  0  0  0  0  0  0  0
   -4.0440    0.8620    0.1700 C   0  0  0  0  0  0  0  0  0  0  0  0
    3.9860   -0.1680    0.9590 C   0  0  0  0  0  0  0  0  0  0  0  0
    2.8550   -0.9500    0.8510 C   0  0  0  0  0  0  0  0  0  0  0  0
   -2.7340   -1.1700    0.5570 C   0  0  0  0  0  0  0  0  0  0  0  0
   -5.0320    0.1730    0.0310 O   0  0  0  0  0  0  0  0  0  0  0  0
    1.3360    0.6840   -1.7070 H   0  0  0  0  0  0  0  0  0  0  0  0
    3.3600    2.0660   -1.4950 H   0  0  0  0  0  0  0  0  0  0  0  0
   -2.1890   -1.6650   -1.4730 H   0  0  0  0  0  0  0  0  0  0  0  0
   -1.5050   -2.7570   -0.2430 H   0  0  0  0  0  0  0  0  0  0  0  0
   -1.8600    2.1330    0.1770 H   0  0  0  0  0  0  0  0  0  0  0  0
   -1.1760    1.0410    1.4100 H   0  0  0  0  0  0  0  0  0  0  0  0
   -3.1930    2.8100    0.3540 H   0  0  0  0  0  0  0  0  0  0  0  0
   -4.4580    2.6670   -0.8900 H   0  0  0  0  0  0  0  0  0  0  0  0
   -4.9040    2.6990    0.8320 H   0  0  0  0  0  0  0  0  0  0  0  0
    5.2190    2.5750    0.9450 H   0  0  0  0  0  0  0  0  0  0  0  0
    6.2310    1.1510    0.6000 H   0  0  0  0  0  0  0  0  0  0  0  0
    5.6580    2.1810   -0.7340 H   0  0  0  0  0  0  0  0  0  0  0  0
   -0.9950    0.7640   -1.6240 H   0  0  0  0  0  0  0  0  0  0  0  0
    0.3450    1.0080   -0.4750 H   0  0  0  0  0  0  0  0  0  0  0  0
    4.7330   -0.4010    1.7040 H   0  0  0  0  0  0  0  0  0  0  0  0
    2.7150   -1.7950    1.5100 H   0  0  0  0  0  0  0  0  0  0  0  0
   -2.3700   -1.3870    1.5610 H   0  0  0  0  0  0  0  0  0  0  0  0
   -3.7110   -1.6310    0.4110 H   0  0  0  0  0  0  0  0  0  0  0  0
 10 12  1  0  0  0  0
 12 15  1  0  0  0  0
 15 16  2  0  0  0  0
  2 16  1  0  0  0  0
  2  3  2  0  0  0  0
  3  4  1  0  0  0  0
  4 12  2  0  0  0  0
  2  5  1  0  0  0  0
  5 11  2  0  0  0  0
  5  9  1  0  0  0  0
  6  9  1  0  0  0  0
  6 17  1  0  0  0  0
  1 17  1  0  0  0  0
  1  7  1  0  0  0  0
  7 13  1  0  0  0  0
  9 13  1  0  0  0  0
  1 14  1  0  0  0  0
 14 18  2  0  0  0  0
  8 14  1  0  0  0  0
  3 19  1  0  0  0  0
  4 20  1  0  0  0  0
  6 21  1  0  0  0  0
  6 22  1  0  0  0  0
  7 23  1  0  0  0  0
  7 24  1  0  0  0  0
  8 25  1  0  0  0  0
  8 26  1  0  0  0  0
  8 27  1  0  0  0  0
 10 28  1  0  0  0  0
 10 29  1  0  0  0  0
 10 30  1  0  0  0  0
 13 31  1  0  0  0  0
 13 32  1  0  0  0  0
 15 33  1  0  0  0  0
 16 34  1  0  0  0  0
 17 35  1  0  0  0  0
 17 36  1  0  0  0  0
M  END
> <OPENEYE_ISO_SMILES>
Cc1ccc(cc1)C(=O)N2CCN(CC2)C(=O)C

> <OPENEYE_INCHI>
InChI=1S/C14H18N2O2/c1-11-3-5-13(6-4-11)14(18)16-9-7-15(8-10-16)12(2)17/h3-6H,7-10H2,1-2H3

> <OPENEYE_INCHIKEY>
DRKSMECTOWRXKP-UHFFFAOYSA-N

> <FORMULA>
C14H18N2O2

$$$$
