@<TRIPOS>MOLECULE
/home/pku/3cl/gett_pdb/7C2I/7C2I_mol2/ligand/7C2I_SAM.pdb
 27 29 0 0 0
SMALL
GASTEIGER

@<TRIPOS>ATOM
      1  N         59.4880  -64.6820    1.6590 N.3   301  SAM301     -0.1208
      2  CA        59.7720  -66.0450    1.2250 C.3   301  SAM301      0.1952
      3  C         61.0040  -66.5980    1.8900 C.2   301  SAM301      0.3819
      4  O         61.3590  -66.1450    2.9510 O.co2 301  SAM301     -0.2441
      5  OXT       61.6360  -67.5120    1.3920 O.co2 301  SAM301     -0.2441
      6  CB        59.8800  -66.1870   -0.2820 C.3   301  SAM301      0.0414
      7  CG        58.6840  -65.5750   -0.9740 C.3   301  SAM301      0.0503
      8  SD        58.6480  -65.8660   -2.7470 S.3   301  SAM301     -0.1761
      9  CE        59.7740  -64.6070   -3.3690 C.3   301  SAM301      0.0590
     10  C5'       57.0770  -65.0620   -3.1590 C.3   301  SAM301      0.0805
     11  C4'       55.8170  -65.6350   -2.5240 C.3   301  SAM301      0.1602
     12  O4'       54.7590  -64.7390   -2.7560 O.3   301  SAM301     -0.3324
     13  C3'       55.3580  -66.9900   -3.0670 C.3   301  SAM301      0.2144
     14  O3'       55.4390  -67.9730   -2.0720 O.3   301  SAM301     -0.2176
     15  C2'       53.9170  -66.7670   -3.4920 C.3   301  SAM301      0.2336
     16  O2'       53.0280  -67.8010   -3.1550 O.3   301  SAM301     -0.2155
     17  C1'       53.5660  -65.4800   -2.7740 C.3   301  SAM301      0.2409
     18  N9        52.4650  -64.8030   -3.4600 N.ar  301  SAM301     -0.2693
     19  C8        52.4480  -64.3210   -4.7290 C.ar  301  SAM301      0.1816
     20  N7        51.2330  -63.7890   -4.9500 N.ar  301  SAM301     -0.2193
     21  C5        50.4680  -63.9340   -3.8560 C.ar  301  SAM301      0.1518
     22  C6        49.1560  -63.5760   -3.5460 C.ar  301  SAM301      0.1919
     23  N6        48.3640  -62.9650   -4.4190 N.pl3 301  SAM301     -0.1054
     24  N1        48.6700  -63.8670   -2.2970 N.ar  301  SAM301     -0.2040
     25  C2        49.4650  -64.5050   -1.3830 C.ar  301  SAM301      0.2016
     26  N3        50.7510  -64.8600   -1.6960 N.ar  301  SAM301     -0.2048
     27  C4        51.2430  -64.5730   -2.9110 C.ar  301  SAM301      0.1692
@<TRIPOS>BOND
     1    20    19   ar
     2    20    21   ar
     3    19    18   ar
     4    23    22    1
     5    21    22   ar
     6    21    27   ar
     7    22    24   ar
     8    15    16    1
     9    15    13    1
    10    15    17    1
    11    18    27   ar
    12    18    17    1
    13     9     8    1
    14    10     8    1
    15    10    11    1
    16    13    11    1
    17    13    14    1
    18    27    26   ar
    19    17    12    1
    20    12    11    1
    21     8     7    1
    22    24    25   ar
    23    26    25   ar
    24     7     6    1
    25     6     2    1
    26     2     1    1
    27     2     3    1
    28     5     3   ar
    29     3     4   ar
