@<TRIPOS>MOLECULE
/home/pku/3cl/gett_pdb/7XC4/7XC4_mol2/ligand/7XC4_BJ6.pdb
 22 24 0 0 0
SMALL
GASTEIGER

@<TRIPOS>ATOM
      1  C4       -12.5590   15.6870    0.5950 C.ar  701  BJ6701      0.0016
      2  C5       -11.2550   15.4000   -1.4100 C.ar  701  BJ6701      0.0000
      3  C6       -11.8080   14.8810   -0.2480 C.ar  701  BJ6701      0.0000
      4  C7       -14.6640   17.7080    2.0290 C.ar  701  BJ6701      0.1643
      5  C10      -13.5670   17.9540    1.1750 C.ar  701  BJ6701      0.1185
      6  C13      -16.3680   14.8560    3.8910 C.ar  701  BJ6701      0.0001
      7  C15      -15.6820   16.0290    3.6140 C.ar  701  BJ6701      0.0031
      8  C17      -15.4100   16.3970    2.3020 C.ar  701  BJ6701      0.0361
      9  C20      -15.6790   23.2250    3.1550 C.2   701  BJ6701      0.0508
     10  C1       -12.1990   17.5390   -0.8880 C.ar  701  BJ6701      0.0016
     11  C12      -16.7960   14.0460    2.8500 C.ar  701  BJ6701      0.0000
     12  C14      -16.5350   14.4150    1.5370 C.ar  701  BJ6701      0.0001
     13  C16      -15.8470   15.5900    1.2600 C.ar  701  BJ6701      0.0031
     14  C18      -14.2060   21.2620    2.5820 C.3   701  BJ6701      0.0912
     15  C19      -15.5350   21.7030    3.1870 C.3   701  BJ6701      0.0514
     16  C2       -12.7630   17.0180    0.2690 C.ar  701  BJ6701      0.0208
     17  C3       -11.4500   16.7340   -1.7310 C.ar  701  BJ6701      0.0000
     18  C9       -14.1730   19.7920    2.1680 C.ar  701  BJ6701      0.2061
     19  N11      -13.2970   19.2870    1.3060 N.ar  701  BJ6701     -0.2121
     20  O21      -14.7610   23.9280    2.6560 O.co2 701  BJ6701     -0.5492
     21  O22      -16.7110   23.7780    3.6240 O.co2 701  BJ6701     -0.5492
     22  O8       -14.9780   18.8530    2.5910 O.2   701  BJ6701     -0.4384
@<TRIPOS>UNITY_ATOM_ATTR
21 1
charge -1
@<TRIPOS>BOND
     1    17     2   ar
     2    17    10   ar
     3     2     3   ar
     4    10    16   ar
     5     3     1   ar
     6    16     1   ar
     7    16     5    1
     8     5    19   ar
     9     5     4   ar
    10    13    12   ar
    11    13     8   ar
    12    19    18   ar
    13    12    11   ar
    14     4     8    1
    15     4    22   ar
    16    18    14    1
    17    18    22   ar
    18     8     7   ar
    19    14    15    1
    20    20     9   ar
    21    11     6   ar
    22     9    15    1
    23     9    21   ar
    24     7     6   ar
