3WL
  -OEChem-02242320003D

 30 32  0     0  0  0  0  0  0999 V2000
   -3.3650    1.4120   -0.0020 C   0  0  0  0  0  0  0  0  0  0  0  0
   -4.7200    1.6660   -0.0090 C   0  0  0  0  0  0  0  0  0  0  0  0
   -1.4540   -0.1860    0.0050 C   0  0  0  0  0  0  0  0  0  0  0  0
   -1.0380   -1.4800    0.0030 C   0  0  0  0  0  0  0  0  0  0  0  0
    0.3490   -1.7670   -0.0010 C   0  0  0  0  0  0  0  0  0  0  0  0
    2.6640   -0.8160   -0.0070 C   0  0  0  0  0  0  0  0  0  0  0  0
    1.5970    1.7660   -0.0020 C   0  0  0  0  0  0  0  0  0  0  0  0
    0.7580   -2.9170   -0.0030 O   0  0  0  0  0  0  0  0  0  0  0  0
    1.2770   -0.6240   -0.0030 C   0  0  0  0  0  0  0  0  0  0  0  0
    0.7410    0.6750   -0.0010 C   0  0  0  0  0  0  0  0  0  0  0  0
    2.9690    1.5730   -0.0060 C   0  0  0  0  0  0  0  0  0  0  0  0
    3.8000    2.6470   -0.0060 O   0  0  0  0  0  0  0  0  0  0  0  0
    3.5040    0.2860   -0.0090 C   0  0  0  0  0  0  0  0  0  0  0  0
    4.8550    0.1110   -0.0120 O   0  0  0  0  0  0  0  0  0  0  0  0
    3.1820   -2.0720   -0.0080 O   0  0  0  0  0  0  0  0  0  0  0  0
   -0.5980    0.8480    0.0030 O   0  0  0  0  0  0  0  0  0  0  0  0
   -2.9040    0.0930    0.0020 C   0  0  0  0  0  0  0  0  0  0  0  0
   -3.8210   -0.9600    0.0040 C   0  0  0  0  0  0  0  0  0  0  0  0
   -5.1740   -0.6920    0.0020 C   0  0  0  0  0  0  0  0  0  0  0  0
   -5.6240    0.6170   -0.0120 C   0  0  0  0  0  0  0  0  0  0  0  0
   -2.6610    2.2310   -0.0040 H   0  0  0  0  0  0  0  0  0  0  0  0
   -5.0780    2.6850   -0.0120 H   0  0  0  0  0  0  0  0  0  0  0  0
   -1.7600   -2.2830    0.0040 H   0  0  0  0  0  0  0  0  0  0  0  0
    1.1940    2.7680    0.0000 H   0  0  0  0  0  0  0  0  0  0  0  0
    4.0430    2.9570    0.8770 H   0  0  0  0  0  0  0  0  0  0  0  0
    5.2420    0.0610   -0.8970 H   0  0  0  0  0  0  0  0  0  0  0  0
    3.3350   -2.4350    0.8740 H   0  0  0  0  0  0  0  0  0  0  0  0
   -3.4720   -1.9820    0.0070 H   0  0  0  0  0  0  0  0  0  0  0  0
   -5.8850   -1.5050    0.0040 H   0  0  0  0  0  0  0  0  0  0  0  0
   -6.6840    0.8220   -0.0170 H   0  0  0  0  0  0  0  0  0  0  0  0
  2 20  2  0  0  0  0
  1  2  1  0  0  0  0
 19 20  1  0  0  0  0
  1 17  2  0  0  0  0
 18 19  2  0  0  0  0
 17 18  1  0  0  0  0
  3 17  1  0  0  0  0
  3  4  2  0  0  0  0
  4  5  1  0  0  0  0
  5  8  2  0  0  0  0
  3 16  1  0  0  0  0
  5  9  1  0  0  0  0
 10 16  1  0  0  0  0
  9 10  2  0  0  0  0
  6  9  1  0  0  0  0
  6 15  1  0  0  0  0
  7 10  1  0  0  0  0
  6 13  2  0  0  0  0
  7 11  2  0  0  0  0
 11 13  1  0  0  0  0
 13 14  1  0  0  0  0
 11 12  1  0  0  0  0
  1 21  1  0  0  0  0
  2 22  1  0  0  0  0
  4 23  1  0  0  0  0
  7 24  1  0  0  0  0
 12 25  1  0  0  0  0
 14 26  1  0  0  0  0
 15 27  1  0  0  0  0
 18 28  1  0  0  0  0
 19 29  1  0  0  0  0
 20 30  1  0  0  0  0
M  END
> <OPENEYE_ISO_SMILES>
c1ccc(cc1)c2cc(=O)c3c(o2)cc(c(c3O)O)O

> <OPENEYE_INCHI>
InChI=1S/C15H10O5/c16-9-6-11(8-4-2-1-3-5-8)20-12-7-10(17)14(18)15(19)13(9)12/h1-7,17-19H

> <OPENEYE_INCHIKEY>
FXNFHKRTJBSTCS-UHFFFAOYSA-N

> <FORMULA>
C15H10O5

$$$$
