OHP
  -OEChem-02242320033D

 19 19  0     0  0  0  0  0  0999 V2000
    3.7210   -3.7560    2.9910 C   0  0  0  0  0  0  0  0  0  0  0  0
    3.9960   -2.2930    2.7570 C   0  0  0  0  0  0  0  0  0  0  0  0
    2.8780   -1.6520    2.0020 C   0  0  0  0  0  0  0  0  0  0  0  0
    1.8000   -1.0790    2.6760 C   0  0  0  0  0  0  0  0  0  0  0  0
    0.7640   -0.4840    1.9550 C   0  0  0  0  0  0  0  0  0  0  0  0
    0.8070   -0.4630    0.5610 C   0  0  0  0  0  0  0  0  0  0  0  0
    1.8850   -1.0360   -0.1120 C   0  0  0  0  0  0  0  0  0  0  0  0
    2.9210   -1.6310    0.6080 C   0  0  0  0  0  0  0  0  0  0  0  0
    1.7420   -1.0910    4.0370 O   0  0  0  0  0  0  0  0  0  0  0  0
    2.6800   -4.3160    2.6730 O   0  0  0  0  0  0  0  0  0  0  0  0
    4.7420   -4.3880    3.6240 O   0  0  0  0  0  0  0  0  0  0  0  0
    4.1810   -1.7920    3.7150 H   0  0  0  0  0  0  0  0  0  0  0  0
    4.9410   -2.2130    2.2060 H   0  0  0  0  0  0  0  0  0  0  0  0
   -0.0790   -0.0350    2.4730 H   0  0  0  0  0  0  0  0  0  0  0  0
    0.0000   -0.0000   -0.0000 H   0  0  0  0  0  0  0  0  0  0  0  0
    1.9180   -1.0200   -1.1980 H   0  0  0  0  0  0  0  0  0  0  0  0
    3.7570   -2.0750    0.0740 H   0  0  0  0  0  0  0  0  0  0  0  0
    1.0450   -0.4920    4.3480 H   0  0  0  0  0  0  0  0  0  0  0  0
    4.5920   -5.3380    3.8160 H   0  0  0  0  0  0  0  0  0  0  0  0
  1  2  1  0  0  0  0
  1 10  2  0  0  0  0
  1 11  1  0  0  0  0
  2  3  1  0  0  0  0
  2 12  1  0  0  0  0
  2 13  1  0  0  0  0
  3  4  2  0  0  0  0
  3  8  1  0  0  0  0
  4  5  1  0  0  0  0
  4  9  1  0  0  0  0
  5  6  2  0  0  0  0
  5 14  1  0  0  0  0
  6  7  1  0  0  0  0
  6 15  1  0  0  0  0
  7  8  2  0  0  0  0
  7 16  1  0  0  0  0
  8 17  1  0  0  0  0
  9 18  1  0  0  0  0
 11 19  1  0  0  0  0
M  END
> <OPENEYE_ISO_SMILES>
c1ccc(c(c1)CC(=O)O)O

> <OPENEYE_INCHI>
InChI=1S/C8H8O3/c9-7-4-2-1-3-6(7)5-8(10)11/h1-4,9H,5H2,(H,10,11)

> <OPENEYE_INCHIKEY>
CCVYRRGZDBSHFU-UHFFFAOYSA-N

> <FORMULA>
C8H8O3

$$$$
