@<TRIPOS>MOLECULE
/home/pku/3cl/gett_pdb/8CZW/8CZW_mol2/ligand/8CZW_P8U.pdb
 32 34 0 0 0
SMALL
GASTEIGER

@<TRIPOS>ATOM
      1  N1        20.9570   20.6330   -1.3080 N.am  401  P8U401     -0.1611
      2  C2        20.9820   19.2220   -0.9870 C.3   401  P8U401      0.1761
      3  C3        22.0330   18.9390    0.0960 C.3   401  P8U401      0.0312
      4  C4        23.4470   19.3940   -0.3630 C.3   401  P8U401      0.0022
      5  C6        23.9350   18.5610   -1.5670 C.3   401  P8U401      0.0001
      6  C8        17.8200   16.9900   -0.4660 C.3   401  P8U401      0.1287
      7  C9        16.8050   16.7990   -1.6160 C.3   401  P8U401      0.0335
      8  C10       16.4160   18.1760   -2.2640 C.3   401  P8U401      0.0818
      9  C11       15.4280   17.9630   -3.3830 C.2   401  P8U401      0.2410
     10  C16       19.0900   24.1860   -3.8080 C.3   401  P8U401      0.0439
     11  C17       18.9190   25.6000   -3.1640 C.3   401  P8U401      0.0037
     12  C19       20.0610   26.6240   -3.0500 C.3   401  P8U401      0.0001
     13  C20       20.9350   26.3230   -1.8250 C.3   401  P8U401      0.0000
     14  C21       22.0520   27.3800   -1.6350 C.3   401  P8U401      0.0000
     15  C22       21.4920   28.8110   -1.5660 C.3   401  P8U401      0.0000
     16  C1        19.8460   21.1340   -2.1080 C.2   401  P8U401      0.4215
     17  C12       14.5760   19.7570   -1.9440 C.3   401  P8U401      0.1156
     18  C13       15.8000   19.0780   -1.2370 C.3   401  P8U401      0.0326
     19  C14       18.1500   15.6490    0.1870 C.3   401  P8U401      0.2036
     20  C15       18.5810   22.9770   -2.9750 C.3   401  P8U401      0.2100
     21  C18       17.9830   25.0830   -4.2920 C.3   401  P8U401      0.0038
     22  C23       20.5550   29.1110   -2.7470 C.3   401  P8U401      0.0000
     23  C24       19.4620   28.0320   -2.9190 C.3   401  P8U401      0.0000
     24  C5        24.4420   19.1770    0.8120 C.3   401  P8U401      0.0001
     25  C7        19.6170   18.7900   -0.4460 C.2   401  P8U401      0.2614
     26  N2        19.0920   17.5070   -0.9310 N.am  401  P8U401     -0.2030
     27  N3        14.3160   18.9180   -3.2050 N.am  401  P8U401     -0.2054
     28  O1        19.1690   20.3700   -2.7210 O.2   401  P8U401     -0.2246
     29  O2        15.4910   17.1870   -4.2780 O.2   401  P8U401     -0.2734
     30  O3        17.0010   15.0550    0.7420 O.3   401  P8U401     -0.2185
     31  O4        19.0060   19.4630    0.3300 O.2   401  P8U401     -0.2715
     32  O5        19.6210   22.5300   -2.1160 O.3   401  P8U401     -0.4335
@<TRIPOS>BOND
     1    21    10    1
     2    21    11    1
     3    29     9    2
     4    10    11    1
     5    10    20    1
     6     9    27   am
     7     9     8    1
     8    27    17    1
     9    11    12    1
    10    12    23    1
    11    12    13    1
    12    20    32    1
    13    23    22    1
    14    22    15    1
    15    28    16    2
    16     8     7    1
    17     8    18    1
    18    32    16    1
    19    16     1   am
    20    17    18    1
    21    13    14    1
    22    14    15    1
    23     7     6    1
    24     5     4    1
    25     1     2    1
    26     2    25    1
    27     2     3    1
    28    26     6    1
    29    26    25   am
    30     6    19    1
    31    25    31    2
    32     4     3    1
    33     4    24    1
    34    19    30    1
