@<TRIPOS>MOLECULE
/home/pku/3cl/gett_pdb/7TIW/7TIW_mol2/ligand/7TIW_I54.pdb
 30 31 0 0 0
SMALL
GASTEIGER

@<TRIPOS>ATOM
      1  C1        -9.3820   10.2600   67.9680 C.ar  401  I54401      0.0319
      2  C2        -8.6620   11.3870   68.3570 C.ar  401  I54401      0.0002
      3  C3        -7.6170   11.8650   67.5740 C.ar  401  I54401     -0.0002
      4  C4        -7.2770   11.2140   66.3940 C.ar  401  I54401      0.0008
      5  C5        -7.9870   10.0860   66.0000 C.ar  401  I54401      0.0112
      6  C6        -9.0350    9.6110   66.7830 C.ar  401  I54401      0.0572
      7  C7       -10.5630    9.7050   68.8400 C.3   401  I54401      0.2376
      8  C9       -11.6430   11.6860   69.4560 C.2   401  I54401      0.4218
      9  C12      -12.1170   14.0750   69.7640 C.3   401  I54401      0.1761
     10  C13      -11.6950   15.1550   70.7980 C.3   401  I54401      0.0312
     11  C14      -12.4700   14.8830   72.1340 C.3   401  I54401      0.0022
     12  C15      -12.0030   15.9270   73.1670 C.3   401  I54401      0.0001
     13  C16      -13.9610   15.0320   71.8630 C.3   401  I54401      0.0001
     14  C17      -11.5340   14.5280   68.4330 C.2   401  I54401      0.2617
     15  C20      -11.7710   15.4610   66.2370 C.3   401  I54401      0.1601
     16  C21      -12.0380   16.9420   66.0350 C.2   401  I54401      0.2287
     17  C24      -12.3510   14.6540   65.0520 C.3   401  I54401      0.0389
     18  C25      -11.7050   13.2190   65.0120 C.3   401  I54401      0.0821
     19  C26      -10.2330   13.3380   64.7610 C.3   401  I54401      0.0326
     20  C27       -9.9520   12.0530   63.8740 C.3   401  I54401      0.1156
     21  C29      -12.2950   12.4120   63.8860 C.2   401  I54401      0.2410
     22 CL1        -9.8830    8.2370   66.2820 Cl    401  I54401     -0.0825
     23  N11      -11.5390   12.8040   70.1700 N.am  401  I54401     -0.1611
     24  N19      -12.3380   15.0180   67.5020 N.am  401  I54401     -0.1977
     25  N28      -11.3200   11.7470   63.2560 N.am  401  I54401     -0.2054
     26  O10      -12.2980   11.6340   68.4410 O.2   401  I54401     -0.2245
     27  O18      -10.3490   14.4540   68.2460 O.2   401  I54401     -0.2715
     28  O22      -11.5330   17.5180   65.0930 O.2   401  I54401     -0.2864
     29  O30      -13.4670   12.3510   63.6010 O.2   401  I54401     -0.2734
     30  O8       -10.9850   10.6190   69.8830 O.3   401  I54401     -0.4285
@<TRIPOS>BOND
     1    25    20    1
     2    25    21   am
     3    29    21    2
     4    20    19    1
     5    21    18    1
     6    19    18    1
     7    18    17    1
     8    17    15    1
     9    28    16    2
    10     5     4   ar
    11     5     6   ar
    12    16    15    1
    13    15    24    1
    14    22     6    1
    15     4     3   ar
    16     6     1   ar
    17    24    14   am
    18     3     2   ar
    19     1     2   ar
    20     1     7    1
    21    27    14    2
    22    14     9    1
    23    26     8    2
    24     7    30    1
    25     8    30    1
    26     8    23   am
    27     9    23    1
    28     9    10    1
    29    10    11    1
    30    13    11    1
    31    11    12    1
