@<TRIPOS>MOLECULE
/home/pku/3cl/gett_pdb/7L14/7L14_mol2/ligand/7L14_XFD.pdb
 33 37 0 0 0
SMALL
GASTEIGER

@<TRIPOS>ATOM
      1  C9       -24.3010   -4.5000  -25.1140 C.ar  400  XFD400      0.0111
      2  C3       -18.5090   -3.9490  -26.0750 C.ar  400  XFD400      0.1164
      3  C4       -16.8290   -5.3600  -25.0830 C.ar  400  XFD400      0.0990
      4  N1       -20.7720   -4.7500  -26.5120 N.ar  400  XFD400     -0.2716
      5  C2       -19.4190   -5.0140  -26.0160 C.ar  400  XFD400      0.0860
      6  C19      -23.4410   -2.8910  -30.1410 C.ar  400  XFD400      0.0117
      7  C20      -23.7180   -2.5720  -31.4740 C.ar  400  XFD400      0.0607
      8  C21      -23.0680   -3.2330  -32.5100 C.ar  400  XFD400      0.0483
      9  C22      -22.1120   -4.2090  -32.2230 C.ar  400  XFD400      0.1394
     10  C23      -20.4660   -5.7670  -33.0510 C.3   400  XFD400      0.2053
     11  C24      -20.1080   -6.3930  -34.4240 C.3   400  XFD400      0.0438
     12  C25      -21.8160   -4.5440  -30.8930 C.ar  400  XFD400      0.0371
     13  C7       -21.8170   -4.7660  -25.5890 C.ar  400  XFD400      0.0830
     14  C12      -25.4050   -4.0520  -22.9910 C.ar  400  XFD400      0.0103
     15  C13      -26.5620   -4.6820  -23.4660 C.ar  400  XFD400      0.0007
     16  C18      -22.4930   -3.8790  -29.8490 C.ar  400  XFD400      0.0085
     17  C17      -22.2280   -4.1950  -28.3540 C.ar  400  XFD400      0.0567
     18  C14      -26.5930   -5.2240  -24.7560 C.ar  400  XFD400      0.0000
     19  C15      -25.4650   -5.1340  -25.5740 C.ar  400  XFD400      0.0007
     20  C16      -23.3000   -4.2060  -27.4530 C.ar  400  XFD400      0.0063
     21  C1       -20.9540   -4.4740  -27.8670 C.ar  400  XFD400      0.2647
     22  C10      -24.2700   -3.9660  -23.8090 C.ar  400  XFD400      0.0685
     23  C11      -23.0350   -3.2680  -23.2320 C.1   400  XFD400      0.1004
     24  C26      -20.1860   -5.4160  -35.6150 C.3   400  XFD400      0.0038
     25  C27      -18.8220   -5.9100  -35.0820 C.3   400  XFD400      0.0038
     26  C5       -17.7450   -6.4180  -25.0320 C.ar  400  XFD400      0.0222
     27  C6       -19.0550   -6.2530  -25.4920 C.ar  400  XFD400      0.0208
     28  C8       -23.0920   -4.4700  -26.0880 C.ar  400  XFD400      0.0184
     29  N2       -17.2050   -4.1210  -25.6080 N.ar  400  XFD400     -0.2408
     30  N3       -22.1190   -2.7420  -22.7920 N.1   400  XFD400     -0.1908
     31  O1       -19.8500   -4.4970  -28.7180 O.2   400  XFD400     -0.2666
     32  O2       -21.4860   -4.8290  -33.3220 O.3   400  XFD400     -0.4754
     33 CL1       -24.9260   -1.3380  -31.8980 Cl    400  XFD400     -0.0821
@<TRIPOS>BOND
     1    24    25    1
     2    24    11    1
     3    25    11    1
     4    11    10    1
     5    32    10    1
     6    32     9    1
     7     8     9   ar
     8     8     7   ar
     9     9    12   ar
    10    33     7    1
    11     7     6   ar
    12    12    16   ar
    13     6    16   ar
    14    16    17    1
    15    31    21    2
    16    17    21   ar
    17    17    20   ar
    18    21     4   ar
    19    20    28   ar
    20     4     5    1
    21     4    13   ar
    22    28    13   ar
    23    28     1    1
    24     2     5   ar
    25     2    29   ar
    26     5    27   ar
    27    29     3   ar
    28    19     1   ar
    29    19    18   ar
    30    27    26   ar
    31     1    22   ar
    32     3    26   ar
    33    18    15   ar
    34    22    23    1
    35    22    14   ar
    36    15    14   ar
    37    23    30    3
