I8D
  -OEChem-02242320023D

 27 28  0     0  0  0  0  0  0999 V2000
   -1.7090   -0.6140   -0.3690 N   0  0  0  0  0  0  0  0  0  0  0  0
    0.6860   -0.7970    0.1030 C   0  0  0  0  0  0  0  0  0  0  0  0
    1.7210   -1.5590   -0.4430 C   0  0  0  0  0  0  0  0  0  0  0  0
    3.0030   -1.0530   -0.4760 C   0  0  0  0  0  0  0  0  0  0  0  0
   -0.6900   -1.3340    0.1410 C   0  0  0  0  0  0  0  0  0  0  0  0
   -3.0550   -1.1880   -0.4040 C   0  0  0  0  0  0  0  0  0  0  0  0
   -2.2000    1.7550   -0.0070 C   0  0  0  0  0  0  0  0  0  0  0  0
    4.8830    0.8390   -0.0130 Cl  0  0  0  0  0  0  0  0  0  0  0  0
    3.2660    0.2090    0.0320 C   0  0  0  0  0  0  0  0  0  0  0  0
    2.2430    0.9700    0.5740 C   0  0  0  0  0  0  0  0  0  0  0  0
    0.9580    0.4720    0.6180 C   0  0  0  0  0  0  0  0  0  0  0  0
   -0.9040   -2.4250    0.6330 O   0  0  0  0  0  0  0  0  0  0  0  0
   -3.9770   -0.3850    0.5200 C   0  0  0  0  0  0  0  0  0  0  0  0
   -3.9720    1.3520   -0.0150 S   0  0  0  0  0  0  0  0  0  0  0  0
   -1.4580    0.7350   -0.8780 C   0  0  0  0  0  0  0  0  0  0  0  0
    1.5180   -2.5440   -0.8380 H   0  0  0  0  0  0  0  0  0  0  0  0
    3.8040   -1.6420   -0.8980 H   0  0  0  0  0  0  0  0  0  0  0  0
   -3.4400   -1.1510   -1.4230 H   0  0  0  0  0  0  0  0  0  0  0  0
   -3.0170   -2.2240   -0.0670 H   0  0  0  0  0  0  0  0  0  0  0  0
   -2.0520    2.7570   -0.4110 H   0  0  0  0  0  0  0  0  0  0  0  0
   -1.8180    1.7120    1.0120 H   0  0  0  0  0  0  0  0  0  0  0  0
    2.4540    1.9530    0.9680 H   0  0  0  0  0  0  0  0  0  0  0  0
    0.1620    1.0660    1.0410 H   0  0  0  0  0  0  0  0  0  0  0  0
   -4.9900   -0.7830    0.4610 H   0  0  0  0  0  0  0  0  0  0  0  0
   -3.6150   -0.4520    1.5460 H   0  0  0  0  0  0  0  0  0  0  0  0
   -0.3880    0.9420   -0.8470 H   0  0  0  0  0  0  0  0  0  0  0  0
   -1.8130    0.8080   -1.9060 H   0  0  0  0  0  0  0  0  0  0  0  0
  8  9  1  0  0  0  0
  9 10  2  0  0  0  0
 10 11  1  0  0  0  0
  2 11  2  0  0  0  0
  2  3  1  0  0  0  0
  3  4  2  0  0  0  0
  2  5  1  0  0  0  0
  5 12  2  0  0  0  0
  1  5  1  0  0  0  0
  1  6  1  0  0  0  0
  6 13  1  0  0  0  0
 13 14  1  0  0  0  0
  7 14  1  0  0  0  0
  7 15  1  0  0  0  0
  4  9  1  0  0  0  0
  1 15  1  0  0  0  0
  3 16  1  0  0  0  0
  4 17  1  0  0  0  0
  6 18  1  0  0  0  0
  6 19  1  0  0  0  0
  7 20  1  0  0  0  0
  7 21  1  0  0  0  0
 10 22  1  0  0  0  0
 11 23  1  0  0  0  0
 13 24  1  0  0  0  0
 13 25  1  0  0  0  0
 15 26  1  0  0  0  0
 15 27  1  0  0  0  0
M  END
> <OPENEYE_ISO_SMILES>
c1cc(ccc1C(=O)N2CCSCC2)Cl

> <OPENEYE_INCHI>
InChI=1S/C11H12ClNOS/c12-10-3-1-9(2-4-10)11(14)13-5-7-15-8-6-13/h1-4H,5-8H2

> <OPENEYE_INCHIKEY>
PIZZAODWSORPSH-UHFFFAOYSA-N

> <FORMULA>
C11H12ClNOS

$$$$
