FHS
  -OEChem-02242320023D

 88 91  0     1  0  0  0  0  0999 V2000
   -0.0800    2.0190   -0.6480 C   0  0  0  0  0  0  0  0  0  0  0  0
    2.2070    1.2720   -0.2640 C   0  0  1  0  0  0  0  0  0  0  0  0
    2.9440    2.5190    0.2280 C   0  0  0  0  0  0  0  0  0  0  0  0
    3.0430    5.0110    0.0900 C   0  0  0  0  0  0  0  0  0  0  0  0
    2.8290    0.0450    0.3500 C   0  0  0  0  0  0  0  0  0  0  0  0
    4.7340   -1.4290    0.7230 C   0  0  1  0  0  0  0  0  0  0  0  0
    5.9050   -1.8950   -0.1440 C   0  0  0  0  0  0  0  0  0  0  0  0
    5.3810   -2.3570   -1.5050 C   0  0  1  0  0  0  0  0  0  0  0  0
    4.8480   -4.4160   -2.6120 C   0  0  0  0  0  0  0  0  0  0  0  0
    5.2400   -1.0950    2.1280 C   0  0  1  0  0  0  0  0  0  0  0  0
   -2.2640    2.8280   -1.1720 C   0  0  0  0  0  0  0  0  0  0  0  0
   -4.6290   -0.2250   -0.0730 C   0  0  0  0  0  0  0  0  0  0  0  0
   -7.0280   -0.6950    0.0110 C   0  0  0  0  0  0  0  0  0  0  0  0
   -9.9510   -0.9270    1.4760 C   0  0  0  0  0  0  0  0  0  0  0  0
  -10.8220   -1.7520    2.1620 C   0  0  0  0  0  0  0  0  0  0  0  0
    6.1990   -3.9800   -2.9850 N   0  0  0  0  0  0  0  0  0  0  0  0
    2.3950    3.7530   -0.4900 C   0  0  0  0  0  0  0  0  0  0  0  0
    2.7130    3.6580   -1.9840 C   0  0  0  0  0  0  0  0  0  0  0  0
    6.5220   -2.8230   -2.3820 C   0  0  0  0  0  0  0  0  0  0  0  0
    4.4900   -3.6100   -1.3440 C   0  0  0  0  0  0  0  0  0  0  0  0
   -3.4650    3.4610   -0.4490 C   0  0  0  0  0  0  0  0  0  0  0  0
   -4.2140    2.1490   -0.7150 C   0  0  0  0  0  0  0  0  0  0  0  0
   -4.0340    1.1100    0.3910 C   0  0  0  0  0  0  0  0  0  0  0  0
   -8.4390   -0.4510   -0.4610 C   0  0  0  0  0  0  0  0  0  0  0  0
   -9.3830   -1.3540    0.2900 C   0  0  0  0  0  0  0  0  0  0  0  0
  -11.1230   -3.0060    1.6630 C   0  0  0  0  0  0  0  0  0  0  0  0
  -10.5540   -3.4340    0.4780 C   0  0  0  0  0  0  0  0  0  0  0  0
   -9.6800   -2.6100   -0.2050 C   0  0  0  0  0  0  0  0  0  0  0  0
   -6.2590    1.0070   -1.5690 C   0  0  0  0  0  0  0  0  0  0  0  0
   -5.6740    2.3500   -1.1140 C   0  0  0  0  0  0  0  0  0  0  0  0
   -3.2770    1.9360   -1.9110 C   0  0  0  0  0  0  0  0  0  0  0  0
    0.7970    1.3520    0.1270 N   0  0  0  0  0  0  0  0  0  0  0  0
    4.1280   -0.2360    0.1260 N   0  0  0  0  0  0  0  0  0  0  0  0
   -6.0080    0.0050   -0.5250 N   0  0  0  0  0  0  0  0  0  0  0  0
    0.2970    2.5500   -1.6740 O   0  0  0  0  0  0  0  0  0  0  0  0
    7.5750   -2.2370   -2.5200 O   0  0  0  0  0  0  0  0  0  0  0  0
    5.9330   -2.2240    2.6650 O   0  0  0  0  0  0  0  0  0  0  0  0
    2.1610   -0.6910    1.0460 O   0  0  0  0  0  0  0  0  0  0  0  0
   -1.3760    2.0930   -0.2890 O   0  0  0  0  0  0  0  0  0  0  0  0
   -6.8110   -1.5200    0.8720 O   0  0  0  0  0  0  0  0  0  0  0  0
    2.2800    1.2110   -1.3500 H   0  0  0  0  0  0  0  0  0  0  0  0
    2.7970    2.6280    1.3030 H   0  0  0  0  0  0  0  0  0  0  0  0
    4.0090    2.4190    0.0150 H   0  0  0  0  0  0  0  0  0  0  0  0
    4.1230    4.9610   -0.0490 H   0  0  0  0  0  0  0  0  0  0  0  0
    2.6520    5.8910   -0.4210 H   0  0  0  0  0  0  0  0  0  0  0  0
    2.8170    5.0790    1.1550 H   0  0  0  0  0  0  0  0  0  0  0  0
    3.9890   -2.2230    0.7840 H   0  0  0  0  0  0  0  0  0  0  0  0
    6.6040   -1.0700   -0.2840 H   0  0  0  0  0  0  0  0  0  0  0  0
    6.4160   -2.7220    0.3490 H   0  0  0  0  0  0  0  0  0  0  0  0
    4.8260   -1.5540   -1.9910 H   0  0  0  0  0  0  0  0  0  0  0  0
    4.1450   -4.1910   -3.4140 H   0  0  0  0  0  0  0  0  0  0  0  0
    4.8420   -5.4840   -2.3950 H   0  0  0  0  0  0  0  0  0  0  0  0
    4.3940   -0.8490    2.7700 H   0  0  0  0  0  0  0  0  0  0  0  0
   -1.7330    3.5200   -1.8260 H   0  0  0  0  0  0  0  0  0  0  0  0
   -4.0360   -0.6230   -0.8960 H   0  0  0  0  0  0  0  0  0  0  0  0
   -4.6290   -0.9320    0.7560 H   0  0  0  0  0  0  0  0  0  0  0  0
   -9.7190    0.0540    1.8630 H   0  0  0  0  0  0  0  0  0  0  0  0
  -11.2660   -1.4180    3.0880 H   0  0  0  0  0  0  0  0  0  0  0  0
    6.7830   -4.4640   -3.5890 H   0  0  0  0  0  0  0  0  0  0  0  0
    1.3150    3.8030   -0.3510 H   0  0  0  0  0  0  0  0  0  0  0  0
    2.2500    2.7610   -2.3970 H   0  0  0  0  0  0  0  0  0  0  0  0
    2.3210    4.5370   -2.4950 H   0  0  0  0  0  0  0  0  0  0  0  0
    3.7920    3.6070   -2.1230 H   0  0  0  0  0  0  0  0  0  0  0  0
    4.7540   -4.1640   -0.4430 H   0  0  0  0  0  0  0  0  0  0  0  0
    3.4340   -3.3400   -1.3390 H   0  0  0  0  0  0  0  0  0  0  0  0
   -3.2860    3.6560    0.6080 H   0  0  0  0  0  0  0  0  0  0  0  0
   -3.8870    4.3200   -0.9720 H   0  0  0  0  0  0  0  0  0  0  0  0
   -4.5480    1.4450    1.2920 H   0  0  0  0  0  0  0  0  0  0  0  0
   -2.9730    0.9820    0.6020 H   0  0  0  0  0  0  0  0  0  0  0  0
   -8.7080    0.5890   -0.2780 H   0  0  0  0  0  0  0  0  0  0  0  0
   -8.5060   -0.6620   -1.5280 H   0  0  0  0  0  0  0  0  0  0  0  0
  -11.8030   -3.6510    2.2000 H   0  0  0  0  0  0  0  0  0  0  0  0
  -10.7900   -4.4130    0.0890 H   0  0  0  0  0  0  0  0  0  0  0  0
   -9.2350   -2.9440   -1.1310 H   0  0  0  0  0  0  0  0  0  0  0  0
   -7.3330    1.1110   -1.7250 H   0  0  0  0  0  0  0  0  0  0  0  0
   -5.7830    0.6970   -2.4980 H   0  0  0  0  0  0  0  0  0  0  0  0
   -6.2380    2.7220   -0.2580 H   0  0  0  0  0  0  0  0  0  0  0  0
   -5.7330    3.0680   -1.9310 H   0  0  0  0  0  0  0  0  0  0  0  0
   -3.6470    2.3720   -2.8390 H   0  0  0  0  0  0  0  0  0  0  0  0
   -2.9460    0.9040   -2.0290 H   0  0  0  0  0  0  0  0  0  0  0  0
    0.4950    0.9250    0.9440 H   0  0  0  0  0  0  0  0  0  0  0  0
    4.6630    0.3520   -0.4310 H   0  0  0  0  0  0  0  0  0  0  0  0
    6.6990   -2.5000    2.1440 H   0  0  0  0  0  0  0  0  0  0  0  0
    6.3680    0.3230    2.0440 S   0  0  0  0  0  0  0  0  0  0  0  0
    7.5180   -0.0000    1.2750 O   0  0  0  0  0  0  0  0  0  0  0  0
    5.6430    1.5230    1.8100 O   0  0  0  0  0  0  0  0  0  0  0  0
    6.8950    0.4740    3.4630 O   0  0  0  0  0  0  0  0  0  0  0  0
    7.5200    1.2030    3.5750 H   0  0  0  0  0  0  0  0  0  0  0  0
 19 36  2  0  0  0  0
 16 19  1  0  0  0  0
  8 19  1  0  0  0  0
  9 16  1  0  0  0  0
  7  8  1  0  0  0  0
  6  7  1  0  0  0  0
  8 20  1  0  0  0  0
 10 37  1  0  0  0  0
  9 20  1  0  0  0  0
  6 10  1  0  0  0  0
  6 33  1  0  0  0  0
  5 33  1  0  0  0  0
  1 35  2  0  0  0  0
 12 23  1  0  0  0  0
 12 34  1  0  0  0  0
 22 23  1  0  0  0  0
 13 40  2  0  0  0  0
  2  5  1  0  0  0  0
  5 38  2  0  0  0  0
 17 18  1  0  0  0  0
  1 39  1  0  0  0  0
  1 32  1  0  0  0  0
  2 32  1  0  0  0  0
  2  3  1  0  0  0  0
 15 26  2  0  0  0  0
 26 27  1  0  0  0  0
 13 34  1  0  0  0  0
 29 34  1  0  0  0  0
 14 15  1  0  0  0  0
 13 24  1  0  0  0  0
 22 31  1  0  0  0  0
 21 22  1  0  0  0  0
 22 30  1  0  0  0  0
 27 28  2  0  0  0  0
 11 39  1  0  0  0  0
 14 25  2  0  0  0  0
 11 31  1  0  0  0  0
 11 21  1  0  0  0  0
 25 28  1  0  0  0  0
  3 17  1  0  0  0  0
 24 25  1  0  0  0  0
  4 17  1  0  0  0  0
 29 30  1  0  0  0  0
  2 41  1  0  0  0  0
  3 42  1  0  0  0  0
  3 43  1  0  0  0  0
  4 44  1  0  0  0  0
  4 45  1  0  0  0  0
  4 46  1  0  0  0  0
  6 47  1  0  0  0  0
  7 48  1  0  0  0  0
  7 49  1  0  0  0  0
  8 50  1  0  0  0  0
  9 51  1  0  0  0  0
  9 52  1  0  0  0  0
 10 53  1  0  0  0  0
 11 54  1  0  0  0  0
 12 55  1  0  0  0  0
 12 56  1  0  0  0  0
 14 57  1  0  0  0  0
 15 58  1  0  0  0  0
 16 59  1  0  0  0  0
 17 60  1  0  0  0  0
 18 61  1  0  0  0  0
 18 62  1  0  0  0  0
 18 63  1  0  0  0  0
 20 64  1  0  0  0  0
 20 65  1  0  0  0  0
 21 66  1  0  0  0  0
 21 67  1  0  0  0  0
 23 68  1  0  0  0  0
 23 69  1  0  0  0  0
 24 70  1  0  0  0  0
 24 71  1  0  0  0  0
 26 72  1  0  0  0  0
 27 73  1  0  0  0  0
 28 74  1  0  0  0  0
 29 75  1  0  0  0  0
 29 76  1  0  0  0  0
 30 77  1  0  0  0  0
 30 78  1  0  0  0  0
 31 79  1  0  0  0  0
 31 80  1  0  0  0  0
 32 81  1  0  0  0  0
 33 82  1  0  0  0  0
 37 83  1  0  0  0  0
 10 84  1  0  0  0  0
 84 85  2  0  0  0  0
 84 86  2  0  0  0  0
 84 87  1  0  0  0  0
 87 88  1  0  0  0  0
M  END
> <OPENEYE_ISO_SMILES>
CC(C)C[C@@H](C(=O)N[C@@H](C[C@@H]1CCNC1=O)[C@@H](O)S(=O)(=O)O)NC(=O)OC2CC3(C2)CCN(CC3)C(=O)Cc4ccccc4

> <OPENEYE_INCHI>
InChI=1S/C30H44N4O9S/c1-19(2)14-23(27(37)32-24(28(38)44(40,41)42)16-21-8-11-31-26(21)36)33-29(39)43-22-17-30(18-22)9-12-34(13-10-30)25(35)15-20-6-4-3-5-7-20/h3-7,19,21-24,28,38H,8-18H2,1-2H3,(H,31,36)(H,32,37)(H,33,39)(H,40,41,42)/t21-,23-,24-,28-/m0/s1

> <OPENEYE_INCHIKEY>
YKVWDIALSLITCN-GLIKCIFVSA-N

> <FORMULA>
C30H44N4O9S

$$$$
