@<TRIPOS>MOLECULE
/home/pku/3cl/gett_pdb/7LKT/7LKT_mol2/ligand/7LKT_Y7M.pdb
 33 36 0 0 0
SMALL
GASTEIGER

@<TRIPOS>ATOM
      1  C02       10.7480   23.8680   26.8280 C.2   401  Y7M401      0.4215
      2  C04       11.6870   21.9640   28.0050 C.3   401  Y7M401      0.1761
      3  C05       12.8280   21.6450   29.0370 C.3   401  Y7M401      0.0312
      4  C06       14.2230   21.9150   28.3900 C.3   401  Y7M401      0.0022
      5  C07       14.5620   20.8890   27.2850 C.3   401  Y7M401      0.0001
      6  C08       15.3180   21.9040   29.4720 C.3   401  Y7M401      0.0001
      7  C09       10.3570   21.3930   28.4600 C.2   401  Y7M401      0.2614
      8  C11        8.6200   19.6280   28.3790 C.3   401  Y7M401      0.1287
      9  C12        7.7130   19.6080   27.0800 C.3   401  Y7M401      0.0335
     10  C13        7.3360   21.0270   26.6240 C.3   401  Y7M401      0.0818
     11  C14        6.4120   20.9940   25.4300 C.2   401  Y7M401      0.2410
     12  C16        5.4290   22.4420   26.9170 C.3   401  Y7M401      0.1156
     13  C17        6.4770   21.7570   27.6980 C.3   401  Y7M401      0.0326
     14  C19        8.9100   18.2010   28.9330 C.3   401  Y7M401      0.2036
     15  C23        9.6330   25.6490   25.7640 C.3   401  Y7M401      0.2099
     16  C24        9.7610   27.2240   25.7520 C.3   401  Y7M401      0.0406
     17  C25        9.3840   27.7770   27.1200 C.3   401  Y7M401      0.0036
     18  C26        9.3960   29.3140   27.1410 C.3   401  Y7M401      0.0001
     19  C27        8.5170   29.8390   26.0070 C.3   401  Y7M401      0.0000
     20  C28        8.9500   29.3080   24.6240 C.3   401  Y7M401      0.0001
     21  C29        8.9210   27.7780   24.6060 C.3   401  Y7M401      0.0036
     22  C30       10.4180   29.7300   24.3650 C.3   401  Y7M401      0.0000
     23  C31       11.3480   29.2380   25.5140 C.3   401  Y7M401      0.0001
     24  C32       11.2500   27.6800   25.5390 C.3   401  Y7M401      0.0036
     25  C33       10.8400   29.7940   26.8740 C.3   401  Y7M401      0.0000
     26  N03       11.5200   23.4050   27.8590 N.am  401  Y7M401     -0.1611
     27  N10        9.9150   20.1880   27.9870 N.am  401  Y7M401     -0.2030
     28  N15        5.2890   21.8070   25.5860 N.am  401  Y7M401     -0.2054
     29  O01       10.1300   23.1210   26.0410 O.2   401  Y7M401     -0.2246
     30  O18        6.5540   20.3460   24.3670 O.2   401  Y7M401     -0.2734
     31  O20        7.6610   17.6790   29.4330 O.3   401  Y7M401     -0.2185
     32  O21        9.6090   22.0540   29.2380 O.2   401  Y7M401     -0.2715
     33  O22       10.6730   25.2080   26.6410 O.3   401  Y7M401     -0.4335
@<TRIPOS>BOND
     1    22    20    1
     2    22    23    1
     3    30    11    2
     4    21    20    1
     5    21    16    1
     6    20    19    1
     7    11    28   am
     8    11    10    1
     9    23    24    1
    10    23    25    1
    11    24    16    1
    12    28    12    1
    13    16    15    1
    14    16    17    1
    15    15    33    1
    16    19    18    1
    17    29     1    2
    18    10     9    1
    19    10    13    1
    20    33     1    1
    21     1    26   am
    22    25    18    1
    23    12    13    1
    24     9     8    1
    25    17    18    1
    26     5     4    1
    27    26     2    1
    28    27     8    1
    29    27     7   am
    30     2     7    1
    31     2     3    1
    32     8    14    1
    33     4     3    1
    34     4     6    1
    35     7    32    2
    36    14    31    1
