S2S
  -OEChem-02242320043D

 24 24  0     0  0  0  0  0  0999 V2000
    1.7180   -0.7350    0.7120 N   0  0  0  0  0  0  0  0  0  0  0  0
   -1.4550    1.0520    0.2910 C   0  0  0  0  0  0  0  0  0  0  0  0
   -2.3320   -0.0160    0.0800 C   0  0  0  0  0  0  0  0  0  0  0  0
   -1.8450   -1.3270    0.0820 C   0  0  0  0  0  0  0  0  0  0  0  0
   -0.5050   -1.5610    0.2910 C   0  0  0  0  0  0  0  0  0  0  0  0
   -3.7680    0.2390   -0.1440 C   0  0  0  0  0  0  0  0  0  0  0  0
    2.5430   -0.1920   -1.8490 C   0  0  0  0  0  0  0  0  0  0  0  0
    0.3650   -0.4950    0.5010 C   0  0  0  0  0  0  0  0  0  0  0  0
   -0.1160    0.8120    0.4940 C   0  0  0  0  0  0  0  0  0  0  0  0
   -4.6110   -0.7920   -0.3470 N   0  0  0  0  0  0  0  0  0  0  0  0
    2.5210    1.5060    0.2090 O   0  0  0  0  0  0  0  0  0  0  0  0
    4.0950   -0.4000    0.3110 O   0  0  0  0  0  0  0  0  0  0  0  0
   -4.1900    1.3790   -0.1450 O   0  0  0  0  0  0  0  0  0  0  0  0
    2.8540    0.1590   -0.0970 S   0  0  0  0  0  0  0  0  0  0  0  0
    1.9970   -1.4240    1.3360 H   0  0  0  0  0  0  0  0  0  0  0  0
   -1.8290    2.0660    0.2890 H   0  0  0  0  0  0  0  0  0  0  0  0
   -2.5200   -2.1540   -0.0800 H   0  0  0  0  0  0  0  0  0  0  0  0
   -0.1290   -2.5730    0.2930 H   0  0  0  0  0  0  0  0  0  0  0  0
    1.5610    0.1920   -2.1280 H   0  0  0  0  0  0  0  0  0  0  0  0
    3.3080    0.2900   -2.4570 H   0  0  0  0  0  0  0  0  0  0  0  0
    2.5720   -1.2690   -2.0140 H   0  0  0  0  0  0  0  0  0  0  0  0
    0.5620    1.6370    0.6530 H   0  0  0  0  0  0  0  0  0  0  0  0
   -4.2750   -1.7020   -0.3460 H   0  0  0  0  0  0  0  0  0  0  0  0
   -5.5560   -0.6250   -0.4940 H   0  0  0  0  0  0  0  0  0  0  0  0
  7 14  1  0  0  0  0
  1 14  1  0  0  0  0
 11 14  2  0  0  0  0
 12 14  2  0  0  0  0
  1  8  1  0  0  0  0
  5  8  2  0  0  0  0
  8  9  1  0  0  0  0
  6 13  2  0  0  0  0
  4  5  1  0  0  0  0
  2  9  2  0  0  0  0
  3  4  2  0  0  0  0
  2  3  1  0  0  0  0
  3  6  1  0  0  0  0
  6 10  1  0  0  0  0
  1 15  1  0  0  0  0
  2 16  1  0  0  0  0
  4 17  1  0  0  0  0
  5 18  1  0  0  0  0
  7 19  1  0  0  0  0
  7 20  1  0  0  0  0
  7 21  1  0  0  0  0
  9 22  1  0  0  0  0
 10 23  1  0  0  0  0
 10 24  1  0  0  0  0
M  END
> <OPENEYE_ISO_SMILES>
CS(=O)(=O)Nc1ccc(cc1)C(=O)N

> <OPENEYE_INCHI>
InChI=1S/C8H10N2O3S/c1-14(12,13)10-7-4-2-6(3-5-7)8(9)11/h2-5,10H,1H3,(H2,9,11)

> <OPENEYE_INCHIKEY>
DVCWUTSWCVQZSC-UHFFFAOYSA-N

> <FORMULA>
C8H10N2O3S

$$$$
