VEJ
  -OEChem-02242320043D

 63 64  0     1  0  0  0  0  0999 V2000
    2.9920   -0.1440    0.3450 N   0  0  0  0  0  0  0  0  0  0  0  0
    1.8310   -0.7870    0.1130 C   0  0  0  0  0  0  0  0  0  0  0  0
    4.1040   -0.2760   -0.5990 C   0  0  0  0  0  0  0  0  0  0  0  0
    5.2920    0.5540   -0.1070 C   0  0  0  0  0  0  0  0  0  0  0  0
    6.4540    0.4160   -1.0940 C   0  0  0  0  0  0  0  0  0  0  0  0
    8.7070    1.1310   -1.4880 C   0  0  0  0  0  0  0  0  0  0  0  0
   -0.2200    1.4640    0.0900 C   0  0  0  0  0  0  0  0  0  0  0  0
    0.4200    1.4780    2.3910 C   0  0  0  0  0  0  0  0  0  0  0  0
   -1.9790   -0.7920   -1.1450 C   0  0  0  0  0  0  0  0  0  0  0  0
   -3.9430    0.4730   -0.6200 C   0  0  0  0  0  0  0  0  0  0  0  0
   -5.2050    1.1650   -1.0650 C   0  0  0  0  0  0  0  0  0  0  0  0
   -5.3590    1.0220   -2.5800 C   0  0  0  0  0  0  0  0  0  0  0  0
   -6.4090    0.5280   -0.3680 C   0  0  0  0  0  0  0  0  0  0  0  0
    1.7070   -1.4750   -0.8780 O   0  0  0  0  0  0  0  0  0  0  0  0
    7.5630    1.1910   -0.6340 O   0  0  0  0  0  0  0  0  0  0  0  0
    0.6870   -0.6520    1.0850 C   0  0  1  0  0  0  0  0  0  0  0  0
    0.2860    0.7970    1.1900 C   0  0  0  0  0  0  0  0  0  0  0  0
    0.0380    2.8090    2.4410 C   0  0  0  0  0  0  0  0  0  0  0  0
   -0.4510    3.4130    1.2970 C   0  0  0  0  0  0  0  0  0  0  0  0
   -0.5690    2.7340    0.1740 N   0  0  0  0  0  0  0  0  0  0  0  0
   -0.4530   -1.4410    0.6100 N   0  0  0  0  0  0  0  0  0  0  0  0
   -0.3720   -2.7850    0.5720 C   0  0  0  0  0  0  0  0  0  0  0  0
    0.6700   -3.3390    0.8520 O   0  0  0  0  0  0  0  0  0  0  0  0
   -1.5770   -3.6020    0.1800 C   0  0  0  0  0  0  0  0  0  0  0  0
   -1.2620   -5.0890    0.3500 C   0  0  0  0  0  0  0  0  0  0  0  0
   -1.6250   -0.7980    0.1970 C   0  0  0  0  0  0  0  0  0  0  0  0
   -2.4360   -0.1640    1.1290 C   0  0  0  0  0  0  0  0  0  0  0  0
   -3.5920    0.4700    0.7180 C   0  0  0  0  0  0  0  0  0  0  0  0
   -5.1300    2.6490   -0.6970 C   0  0  0  0  0  0  0  0  0  0  0  0
   -3.1370   -0.1570   -1.5500 C   0  0  0  0  0  0  0  0  0  0  0  0
    3.0910    0.4090    1.1360 H   0  0  0  0  0  0  0  0  0  0  0  0
    4.3980   -1.3230   -0.6710 H   0  0  0  0  0  0  0  0  0  0  0  0
    3.7920    0.0830   -1.5800 H   0  0  0  0  0  0  0  0  0  0  0  0
    4.9990    1.6010   -0.0350 H   0  0  0  0  0  0  0  0  0  0  0  0
    5.6040    0.1950    0.8740 H   0  0  0  0  0  0  0  0  0  0  0  0
    6.7470   -0.6310   -1.1660 H   0  0  0  0  0  0  0  0  0  0  0  0
    6.1420    0.7750   -2.0750 H   0  0  0  0  0  0  0  0  0  0  0  0
    9.5050    1.7450   -1.0710 H   0  0  0  0  0  0  0  0  0  0  0  0
    9.0470    0.0980   -1.5690 H   0  0  0  0  0  0  0  0  0  0  0  0
    8.4420    1.5040   -2.4780 H   0  0  0  0  0  0  0  0  0  0  0  0
   -0.3270    0.9420   -0.8490 H   0  0  0  0  0  0  0  0  0  0  0  0
    0.8120    0.9820    3.2660 H   0  0  0  0  0  0  0  0  0  0  0  0
   -1.3480   -1.2800   -1.8730 H   0  0  0  0  0  0  0  0  0  0  0  0
   -5.4120   -0.0350   -2.8420 H   0  0  0  0  0  0  0  0  0  0  0  0
   -6.2720    1.5230   -2.9020 H   0  0  0  0  0  0  0  0  0  0  0  0
   -4.5010    1.4760   -3.0770 H   0  0  0  0  0  0  0  0  0  0  0  0
   -6.3000    0.6300    0.7120 H   0  0  0  0  0  0  0  0  0  0  0  0
   -7.3220    1.0290   -0.6900 H   0  0  0  0  0  0  0  0  0  0  0  0
   -6.4630   -0.5290   -0.6290 H   0  0  0  0  0  0  0  0  0  0  0  0
    0.9980   -1.0150    2.0640 H   0  0  0  0  0  0  0  0  0  0  0  0
    0.1280    3.3700    3.3590 H   0  0  0  0  0  0  0  0  0  0  0  0
   -0.7470    4.4510    1.3270 H   0  0  0  0  0  0  0  0  0  0  0  0
   -2.4200   -3.3330    0.8170 H   0  0  0  0  0  0  0  0  0  0  0  0
   -1.8290   -3.4000   -0.8610 H   0  0  0  0  0  0  0  0  0  0  0  0
   -0.4190   -5.3570   -0.2870 H   0  0  0  0  0  0  0  0  0  0  0  0
   -1.0100   -5.2910    1.3910 H   0  0  0  0  0  0  0  0  0  0  0  0
   -2.1330   -5.6800    0.0670 H   0  0  0  0  0  0  0  0  0  0  0  0
   -2.1640   -0.1670    2.1740 H   0  0  0  0  0  0  0  0  0  0  0  0
   -4.2240    0.9630    1.4420 H   0  0  0  0  0  0  0  0  0  0  0  0
   -4.2730    3.1030   -1.1940 H   0  0  0  0  0  0  0  0  0  0  0  0
   -6.0430    3.1490   -1.0190 H   0  0  0  0  0  0  0  0  0  0  0  0
   -5.0210    2.7510    0.3820 H   0  0  0  0  0  0  0  0  0  0  0  0
   -3.4130   -0.1520   -2.5940 H   0  0  0  0  0  0  0  0  0  0  0  0
 19 20  2  0  0  0  0
 18 19  1  0  0  0  0
  7 20  1  0  0  0  0
  8 18  2  0  0  0  0
  7 17  2  0  0  0  0
  8 17  1  0  0  0  0
 16 17  1  0  0  0  0
 24 25  1  0  0  0  0
  2 14  2  0  0  0  0
 22 23  2  0  0  0  0
 22 24  1  0  0  0  0
 21 22  1  0  0  0  0
 16 21  1  0  0  0  0
  2 16  1  0  0  0  0
  9 30  2  0  0  0  0
  9 26  1  0  0  0  0
 21 26  1  0  0  0  0
  1  2  1  0  0  0  0
 10 30  1  0  0  0  0
 26 27  2  0  0  0  0
  6 15  1  0  0  0  0
  5 15  1  0  0  0  0
  1  3  1  0  0  0  0
  3  4  1  0  0  0  0
  4  5  1  0  0  0  0
 11 12  1  0  0  0  0
 10 28  2  0  0  0  0
 10 11  1  0  0  0  0
 27 28  1  0  0  0  0
 11 29  1  0  0  0  0
 11 13  1  0  0  0  0
  1 31  1  0  0  0  0
  3 32  1  0  0  0  0
  3 33  1  0  0  0  0
  4 34  1  0  0  0  0
  4 35  1  0  0  0  0
  5 36  1  0  0  0  0
  5 37  1  0  0  0  0
  6 38  1  0  0  0  0
  6 39  1  0  0  0  0
  6 40  1  0  0  0  0
  7 41  1  0  0  0  0
  8 42  1  0  0  0  0
  9 43  1  0  0  0  0
 12 44  1  0  0  0  0
 12 45  1  0  0  0  0
 12 46  1  0  0  0  0
 13 47  1  0  0  0  0
 13 48  1  0  0  0  0
 13 49  1  0  0  0  0
 16 50  1  0  0  0  0
 18 51  1  0  0  0  0
 19 52  1  0  0  0  0
 24 53  1  0  0  0  0
 24 54  1  0  0  0  0
 25 55  1  0  0  0  0
 25 56  1  0  0  0  0
 25 57  1  0  0  0  0
 27 58  1  0  0  0  0
 28 59  1  0  0  0  0
 29 60  1  0  0  0  0
 29 61  1  0  0  0  0
 29 62  1  0  0  0  0
 30 63  1  0  0  0  0
M  END
> <OPENEYE_ISO_SMILES>
CCC(=O)N(c1ccc(cc1)C(C)(C)C)[C@H](c2cccnc2)C(=O)NCCCOC

> <OPENEYE_INCHI>
InChI=1S/C24H33N3O3/c1-6-21(28)27(20-12-10-19(11-13-20)24(2,3)4)22(18-9-7-14-25-17-18)23(29)26-15-8-16-30-5/h7,9-14,17,22H,6,8,15-16H2,1-5H3,(H,26,29)/t22-/m1/s1

> <OPENEYE_INCHIKEY>
BWBBQIUIWNQPIO-JOCHJYFZSA-N

> <FORMULA>
C24H33N3O3

$$$$
