RR3
  -OEChem-02242320043D

 38 40  0     0  0  0  0  0  0999 V2000
    4.9000    0.0400    0.2190 C   0  0  0  0  0  0  0  0  0  0  0  0
    2.7070   -0.8950    0.4470 C   0  0  0  0  0  0  0  0  0  0  0  0
    4.0590   -0.9270    0.7370 C   0  0  0  0  0  0  0  0  0  0  0  0
    2.1990    0.0970   -0.3710 C   0  0  0  0  0  0  0  0  0  0  0  0
    0.7290    0.1230   -0.6990 C   0  0  0  0  0  0  0  0  0  0  0  0
    7.0740   -0.7980   -0.4810 C   0  0  0  0  0  0  0  0  0  0  0  0
    6.3730    0.0050    0.5350 C   0  0  0  0  0  0  0  0  0  0  0  0
   -4.5380    2.1960   -0.5940 C   0  0  0  0  0  0  0  0  0  0  0  0
   -5.8060   -1.1920   -0.4350 C   0  0  0  0  0  0  0  0  0  0  0  0
   -4.4450   -1.4310   -0.1520 C   0  0  0  0  0  0  0  0  0  0  0  0
   -2.4320   -2.4340    0.3450 C   0  0  0  0  0  0  0  0  0  0  0  0
   -2.4200   -0.1400    0.0780 C   0  0  0  0  0  0  0  0  0  0  0  0
    4.3910    1.0360   -0.5940 C   0  0  0  0  0  0  0  0  0  0  0  0
    3.0400    1.0640   -0.8890 C   0  0  0  0  0  0  0  0  0  0  0  0
   -3.7980   -0.1820   -0.1760 C   0  0  0  0  0  0  0  0  0  0  0  0
   -4.7550    0.7530   -0.4660 N   0  0  0  0  0  0  0  0  0  0  0  0
   -5.9770    0.0860   -0.6230 N   0  0  0  0  0  0  0  0  0  0  0  0
   -3.7210   -2.5260    0.1130 N   0  0  0  0  0  0  0  0  0  0  0  0
   -1.7870   -1.2800    0.3310 N   0  0  0  0  0  0  0  0  0  0  0  0
   -1.7350    1.0620    0.0660 N   0  0  0  0  0  0  0  0  0  0  0  0
    7.6150   -1.4170   -1.2640 N   0  0  0  0  0  0  0  0  0  0  0  0
   -0.1380    0.4630    1.8020 O   0  0  0  0  0  0  0  0  0  0  0  0
    0.2050    2.4870    0.4230 O   0  0  0  0  0  0  0  0  0  0  0  0
   -0.1490    1.1160    0.5400 S   0  0  0  0  0  0  0  0  0  0  0  0
    2.0500   -1.6510    0.8510 H   0  0  0  0  0  0  0  0  0  0  0  0
    4.4570   -1.7080    1.3670 H   0  0  0  0  0  0  0  0  0  0  0  0
    0.5840    0.5630   -1.6850 H   0  0  0  0  0  0  0  0  0  0  0  0
    0.3360   -0.8940   -0.6930 H   0  0  0  0  0  0  0  0  0  0  0  0
    6.7690    1.0210    0.5320 H   0  0  0  0  0  0  0  0  0  0  0  0
    6.5230   -0.4410    1.5180 H   0  0  0  0  0  0  0  0  0  0  0  0
   -4.1950    2.4240   -1.6030 H   0  0  0  0  0  0  0  0  0  0  0  0
   -5.4730    2.7220   -0.4000 H   0  0  0  0  0  0  0  0  0  0  0  0
   -3.7860    2.5160    0.1270 H   0  0  0  0  0  0  0  0  0  0  0  0
   -6.5780   -1.9450   -0.4920 H   0  0  0  0  0  0  0  0  0  0  0  0
   -1.8770   -3.3360    0.5550 H   0  0  0  0  0  0  0  0  0  0  0  0
    5.0480    1.7910   -0.9980 H   0  0  0  0  0  0  0  0  0  0  0  0
    2.6420    1.8420   -1.5230 H   0  0  0  0  0  0  0  0  0  0  0  0
   -2.1830    1.8730   -0.2210 H   0  0  0  0  0  0  0  0  0  0  0  0
  6 21  3  0  0  0  0
  6  7  1  0  0  0  0
  1  7  1  0  0  0  0
  1 13  2  0  0  0  0
 13 14  1  0  0  0  0
  1  3  1  0  0  0  0
  4 14  2  0  0  0  0
 23 24  2  0  0  0  0
  2  3  2  0  0  0  0
  2  4  1  0  0  0  0
  4  5  1  0  0  0  0
  5 24  1  0  0  0  0
 22 24  2  0  0  0  0
 20 24  1  0  0  0  0
 12 20  1  0  0  0  0
  8 16  1  0  0  0  0
 12 15  2  0  0  0  0
 12 19  1  0  0  0  0
 15 16  1  0  0  0  0
 16 17  1  0  0  0  0
 10 15  1  0  0  0  0
 11 19  2  0  0  0  0
  9 17  2  0  0  0  0
  9 10  1  0  0  0  0
 10 18  2  0  0  0  0
 11 18  1  0  0  0  0
  2 25  1  0  0  0  0
  3 26  1  0  0  0  0
  5 27  1  0  0  0  0
  5 28  1  0  0  0  0
  7 29  1  0  0  0  0
  7 30  1  0  0  0  0
  8 31  1  0  0  0  0
  8 32  1  0  0  0  0
  8 33  1  0  0  0  0
  9 34  1  0  0  0  0
 11 35  1  0  0  0  0
 13 36  1  0  0  0  0
 14 37  1  0  0  0  0
 20 38  1  0  0  0  0
M  END
> <OPENEYE_ISO_SMILES>
Cn1c2c(cn1)ncnc2NS(=O)(=O)Cc3ccc(cc3)CC#N

> <OPENEYE_INCHI>
InChI=1S/C15H14N6O2S/c1-21-14-13(8-19-21)17-10-18-15(14)20-24(22,23)9-12-4-2-11(3-5-12)6-7-16/h2-5,8,10H,6,9H2,1H3,(H,17,18,20)

> <OPENEYE_INCHIKEY>
MNVMBEGUZDUKJW-UHFFFAOYSA-N

> <FORMULA>
C15H14N6O2S

$$$$
