WUG
  -OEChem-02242320043D

 20 20  0     0  0  0  0  0  0999 V2000
    1.0650    2.1690   -0.0140 C   0  0  0  0  0  0  0  0  0  0  0  0
    0.1410    0.9800   -0.0540 C   0  0  0  0  0  0  0  0  0  0  0  0
    0.5010   -0.2950   -0.2940 C   0  0  0  0  0  0  0  0  0  0  0  0
    1.8950   -0.7980   -0.5710 C   0  0  0  0  0  0  0  0  0  0  0  0
    2.6280   -0.9330    0.6950 N   0  0  0  0  0  0  0  0  0  0  0  0
   -0.6410   -1.0470   -0.2360 N   0  0  0  0  0  0  0  0  0  0  0  0
   -1.6610   -0.2050    0.0370 C   0  0  0  0  0  0  0  0  0  0  0  0
   -3.1070   -0.5990    0.1940 C   0  0  0  0  0  0  0  0  0  0  0  0
   -1.1850    1.0050    0.1500 N   0  0  0  0  0  0  0  0  0  0  0  0
    1.1410    2.6040   -1.0110 H   0  0  0  0  0  0  0  0  0  0  0  0
    0.6700    2.9140    0.6770 H   0  0  0  0  0  0  0  0  0  0  0  0
    2.0530    1.8510    0.3200 H   0  0  0  0  0  0  0  0  0  0  0  0
    1.8390   -1.7680   -1.0640 H   0  0  0  0  0  0  0  0  0  0  0  0
    2.4140   -0.0900   -1.2180 H   0  0  0  0  0  0  0  0  0  0  0  0
    2.1330   -1.5330    1.3370 H   0  0  0  0  0  0  0  0  0  0  0  0
    3.5660   -1.2680    0.5350 H   0  0  0  0  0  0  0  0  0  0  0  0
   -0.7060   -2.0060   -0.3670 H   0  0  0  0  0  0  0  0  0  0  0  0
   -3.6060   -0.5410   -0.7720 H   0  0  0  0  0  0  0  0  0  0  0  0
   -3.1660   -1.6190    0.5740 H   0  0  0  0  0  0  0  0  0  0  0  0
   -3.5930    0.0790    0.8960 H   0  0  0  0  0  0  0  0  0  0  0  0
  7  8  1  0  0  0  0
  7  9  2  0  0  0  0
  6  7  1  0  0  0  0
  2  9  1  0  0  0  0
  3  6  1  0  0  0  0
  2  3  2  0  0  0  0
  1  2  1  0  0  0  0
  3  4  1  0  0  0  0
  4  5  1  0  0  0  0
  1 10  1  0  0  0  0
  1 11  1  0  0  0  0
  1 12  1  0  0  0  0
  4 13  1  0  0  0  0
  4 14  1  0  0  0  0
  5 15  1  0  0  0  0
  5 16  1  0  0  0  0
  6 17  1  0  0  0  0
  8 18  1  0  0  0  0
  8 19  1  0  0  0  0
  8 20  1  0  0  0  0
M  END
> <OPENEYE_ISO_SMILES>
Cc1c([nH]c(n1)C)CN

> <OPENEYE_INCHI>
InChI=1S/C6H11N3/c1-4-6(3-7)9-5(2)8-4/h3,7H2,1-2H3,(H,8,9)

> <OPENEYE_INCHIKEY>
GEZOFSFHYQGWNK-UHFFFAOYSA-N

> <FORMULA>
C6H11N3

$$$$
