@<TRIPOS>MOLECULE
/home/pku/3cl/gett_pdb/5S2Q/5S2Q_mol2/ligand/5S2Q_W0A.pdb
 16 17 0 0 0
SMALL
GASTEIGER

@<TRIPOS>ATOM
      1  N1        -7.0510   14.9000   -0.1960 N.ar  501  W0A501     -0.2274
      2  C4        -8.5180   14.4050    1.7910 C.3   501  W0A501      0.1803
      3  C5        -7.1780   14.6350    1.0910 C.ar  501  W0A501      0.1610
      4  C6        -5.6780   15.0470   -0.3980 C.ar  501  W0A501      0.1003
      5  C7        -4.9530   15.3250   -1.5520 C.ar  501  W0A501      0.0207
      6  C8        -3.5720   15.4100   -1.4640 C.ar  501  W0A501      0.0016
      7  C10       -3.6310   14.9520    0.9080 C.ar  501  W0A501      0.0207
      8  O         -9.2300   16.4460    3.5140 O.2   501  W0A501     -0.2733
      9  C3        -8.6080   15.4860    3.9610 C.2   501  W0A501      0.2418
     10  C2        -8.0840   15.4830    5.3800 C.3   501  W0A501      0.0868
     11  C1        -8.9090   14.6450    6.3370 C.3   501  W0A501      0.0096
     12  C        -10.1250   15.3720    6.8720 C.3   501  W0A501      0.0005
     13  N         -8.3420   14.4040    3.2300 N.am  501  W0A501     -0.1972
     14  N2        -5.9900   14.5990    1.7420 N.ar  501  W0A501     -0.2274
     15  C11       -5.0090   14.8630    0.8110 C.ar  501  W0A501      0.1003
     16  C9        -2.9190   15.2240   -0.2490 C.ar  501  W0A501      0.0016
@<TRIPOS>BOND
     1     5     6   ar
     2     5     4   ar
     3     6    16   ar
     4     4     1   ar
     5     4    15   ar
     6    16     7   ar
     7     1     3   ar
     8    15     7   ar
     9    15    14   ar
    10     3    14   ar
    11     3     2    1
    12     2    13    1
    13    13     9   am
    14     8     9    2
    15     9    10    1
    16    10    11    1
    17    11    12    1
