UV2
  -OEChem-02242320043D

 68 69  0     1  0  0  0  0  0999 V2000
    0.4810    0.2320    0.2220 N   0  0  0  0  0  0  0  0  0  0  0  0
   -1.9010   -0.1880    0.0350 C   0  0  0  0  0  0  0  0  0  0  0  0
   -4.2710   -0.5300   -0.4170 C   0  0  1  0  0  0  0  0  0  0  0  0
   -3.1550   -0.3260    0.5100 N   0  0  0  0  0  0  0  0  0  0  0  0
   -4.3270    0.6310   -1.4120 C   0  0  0  0  0  0  0  0  0  0  0  0
    1.6830   -0.2710    2.0210 O   0  0  0  0  0  0  0  0  0  0  0  0
    1.6590    0.0100    0.8390 C   0  0  0  0  0  0  0  0  0  0  0  0
    2.8100    0.0990    0.1450 O   0  0  0  0  0  0  0  0  0  0  0  0
   -0.1760    3.1220    3.3280 C   0  0  0  0  0  0  0  0  0  0  0  0
   -0.0510    0.6770    3.8220 C   0  0  0  0  0  0  0  0  0  0  0  0
   -5.7300    3.8750   -1.3510 N   0  0  0  0  0  0  0  0  0  0  0  0
    0.0330    1.7340    2.7200 C   0  0  0  0  0  0  0  0  0  0  0  0
   -1.6830   -0.3230   -1.1500 O   0  0  0  0  0  0  0  0  0  0  0  0
   -1.0510    1.4670    1.6740 C   0  0  0  0  0  0  0  0  0  0  0  0
   -5.1470   -2.0320   -2.0960 O   0  0  0  0  0  0  0  0  0  0  0  0
   -0.7700    0.1340    0.9770 C   0  0  2  0  0  0  0  0  0  0  0  0
   -4.6160    1.9320   -0.6610 C   0  0  2  0  0  0  0  0  0  0  0  0
   -6.0320    1.8930   -0.0360 C   0  0  0  0  0  0  0  0  0  0  0  0
   -4.6670    3.0990   -1.6220 C   0  0  0  0  0  0  0  0  0  0  0  0
   -6.4910    3.3580   -0.2070 C   0  0  0  0  0  0  0  0  0  0  0  0
   -3.8650    3.3040   -2.5090 O   0  0  0  0  0  0  0  0  0  0  0  0
   -4.0690   -1.8430   -1.1770 C   0  0  2  0  0  0  0  0  0  0  0  0
    4.0400   -0.1530    0.8740 C   0  0  0  0  0  0  0  0  0  0  0  0
    5.2330   -0.0060   -0.0730 C   0  0  0  0  0  0  0  0  0  0  0  0
    8.0110   -0.1100   -0.3960 C   0  0  0  0  0  0  0  0  0  0  0  0
    7.6520    0.2270   -1.6960 C   0  0  0  0  0  0  0  0  0  0  0  0
    8.6270    0.3970   -2.6580 C   0  0  0  0  0  0  0  0  0  0  0  0
    9.9610    0.2330   -2.3290 C   0  0  0  0  0  0  0  0  0  0  0  0
   10.3220   -0.1020   -1.0370 C   0  0  0  0  0  0  0  0  0  0  0  0
    9.3520   -0.2730   -0.0690 C   0  0  0  0  0  0  0  0  0  0  0  0
    6.7700   -0.3200    0.8370 S   0  0  0  0  0  0  0  0  0  0  0  0
   -4.0280   -3.2230   -0.0010 S   0  0  0  0  0  0  0  0  0  0  0  0
    0.4630    0.4600   -0.7200 H   0  0  0  0  0  0  0  0  0  0  0  0
   -5.2050   -0.5750    0.1420 H   0  0  0  0  0  0  0  0  0  0  0  0
   -3.3190   -0.2910    1.4650 H   0  0  0  0  0  0  0  0  0  0  0  0
   -3.3700    0.7150   -1.9270 H   0  0  0  0  0  0  0  0  0  0  0  0
   -5.1170    0.4480   -2.1400 H   0  0  0  0  0  0  0  0  0  0  0  0
    0.5960    3.3130    4.0740 H   0  0  0  0  0  0  0  0  0  0  0  0
   -0.1170    3.8760    2.5430 H   0  0  0  0  0  0  0  0  0  0  0  0
   -1.1570    3.1680    3.8020 H   0  0  0  0  0  0  0  0  0  0  0  0
    0.0990   -0.3120    3.3890 H   0  0  0  0  0  0  0  0  0  0  0  0
    0.7220    0.8670    4.5680 H   0  0  0  0  0  0  0  0  0  0  0  0
   -1.0310    0.7220    4.2950 H   0  0  0  0  0  0  0  0  0  0  0  0
   -5.9630    4.6770   -1.8460 H   0  0  0  0  0  0  0  0  0  0  0  0
    1.0140    1.6890    2.2470 H   0  0  0  0  0  0  0  0  0  0  0  0
   -2.0240    1.4240    2.1620 H   0  0  0  0  0  0  0  0  0  0  0  0
   -1.0490    2.2700    0.9360 H   0  0  0  0  0  0  0  0  0  0  0  0
   -5.2300   -1.3300   -2.7560 H   0  0  0  0  0  0  0  0  0  0  0  0
   -0.6840   -0.6550    1.7240 H   0  0  0  0  0  0  0  0  0  0  0  0
   -3.8640    2.1020    0.1100 H   0  0  0  0  0  0  0  0  0  0  0  0
   -6.6820    1.2130   -0.5860 H   0  0  0  0  0  0  0  0  0  0  0  0
   -5.9850    1.6190    1.0180 H   0  0  0  0  0  0  0  0  0  0  0  0
   -6.2620    3.9330    0.6900 H   0  0  0  0  0  0  0  0  0  0  0  0
   -7.5590    3.3960   -0.4190 H   0  0  0  0  0  0  0  0  0  0  0  0
   -3.1280   -1.8040   -1.7250 H   0  0  0  0  0  0  0  0  0  0  0  0
    4.1330    0.5650    1.6890 H   0  0  0  0  0  0  0  0  0  0  0  0
    4.0210   -1.1640    1.2810 H   0  0  0  0  0  0  0  0  0  0  0  0
    5.1400   -0.7240   -0.8880 H   0  0  0  0  0  0  0  0  0  0  0  0
    5.2520    1.0050   -0.4800 H   0  0  0  0  0  0  0  0  0  0  0  0
    6.6100    0.3540   -1.9530 H   0  0  0  0  0  0  0  0  0  0  0  0
    8.3490    0.6580   -3.6680 H   0  0  0  0  0  0  0  0  0  0  0  0
   10.7220    0.3660   -3.0840 H   0  0  0  0  0  0  0  0  0  0  0  0
   11.3640   -0.2300   -0.7850 H   0  0  0  0  0  0  0  0  0  0  0  0
    9.6350   -0.5340    0.9390 H   0  0  0  0  0  0  0  0  0  0  0  0
   -2.8300   -2.9260    0.8900 O   0  0  0  0  0  0  0  0  0  0  0  0
   -5.1420   -3.1610    0.8790 O   0  0  0  0  0  0  0  0  0  0  0  0
   -3.6820   -4.4320   -0.6620 O   0  0  0  0  0  0  0  0  0  0  0  0
   -2.6790   -3.5880    1.5790 H   0  0  0  0  0  0  0  0  0  0  0  0
  9 12  1  0  0  0  0
 26 27  2  0  0  0  0
 25 26  1  0  0  0  0
 10 12  1  0  0  0  0
 12 14  1  0  0  0  0
 27 28  1  0  0  0  0
 25 31  1  0  0  0  0
 24 31  1  0  0  0  0
 25 30  2  0  0  0  0
 28 29  2  0  0  0  0
 29 30  1  0  0  0  0
 14 16  1  0  0  0  0
 23 24  1  0  0  0  0
  1 16  1  0  0  0  0
  1  7  1  0  0  0  0
  8 23  1  0  0  0  0
  7  8  1  0  0  0  0
  2 16  1  0  0  0  0
  6  7  2  0  0  0  0
  2 13  2  0  0  0  0
  2  4  1  0  0  0  0
  3  4  1  0  0  0  0
 15 22  1  0  0  0  0
 22 32  1  0  0  0  0
  3 22  1  0  0  0  0
  3  5  1  0  0  0  0
  5 17  1  0  0  0  0
 17 18  1  0  0  0  0
 17 19  1  0  0  0  0
 18 20  1  0  0  0  0
 11 20  1  0  0  0  0
 19 21  2  0  0  0  0
 11 19  1  0  0  0  0
  1 33  1  0  0  0  0
  3 34  1  0  0  0  0
  4 35  1  0  0  0  0
  5 36  1  0  0  0  0
  5 37  1  0  0  0  0
  9 38  1  0  0  0  0
  9 39  1  0  0  0  0
  9 40  1  0  0  0  0
 10 41  1  0  0  0  0
 10 42  1  0  0  0  0
 10 43  1  0  0  0  0
 11 44  1  0  0  0  0
 12 45  1  0  0  0  0
 14 46  1  0  0  0  0
 14 47  1  0  0  0  0
 15 48  1  0  0  0  0
 16 49  1  0  0  0  0
 17 50  1  0  0  0  0
 18 51  1  0  0  0  0
 18 52  1  0  0  0  0
 20 53  1  0  0  0  0
 20 54  1  0  0  0  0
 22 55  1  0  0  0  0
 23 56  1  0  0  0  0
 23 57  1  0  0  0  0
 24 58  1  0  0  0  0
 24 59  1  0  0  0  0
 26 60  1  0  0  0  0
 27 61  1  0  0  0  0
 28 62  1  0  0  0  0
 29 63  1  0  0  0  0
 30 64  1  0  0  0  0
 32 65  1  0  0  0  0
 32 66  2  0  0  0  0
 32 67  2  0  0  0  0
 65 68  1  0  0  0  0
M  END
> <OPENEYE_ISO_SMILES>
CC(C)C[C@@H](C(=O)N[C@@H](C[C@@H]1CCNC1=O)[C@H](O)S(=O)(=O)O)NC(=O)OCCSc2ccccc2

> <OPENEYE_INCHI>
InChI=1S/C22H33N3O8S2/c1-14(2)12-17(25-22(29)33-10-11-34-16-6-4-3-5-7-16)20(27)24-18(21(28)35(30,31)32)13-15-8-9-23-19(15)26/h3-7,14-15,17-18,21,28H,8-13H2,1-2H3,(H,23,26)(H,24,27)(H,25,29)(H,30,31,32)/t15-,17-,18-,21+/m0/s1

> <OPENEYE_INCHIKEY>
AUIXPEVQDXBTHO-QUJKESNLSA-N

> <FORMULA>
C22H33N3O8S2

$$$$
