@<TRIPOS>MOLECULE
/home/pku/3cl/gett_pdb/7NTK/7NTK_mol2/ligand/7NTK_FLC.pdb
 18 17 0 0 0
SMALL
GASTEIGER

@<TRIPOS>ATOM
      1  CAC       -0.5740   11.8970   10.5410 C.2   401  FLC401      0.3593
      2  CA         0.4940   10.8190   10.3460 C.3   401  FLC401      0.0890
      3  CB         0.2580    9.6800   11.3350 C.3   401  FLC401      0.1867
      4  CBC        1.4700    8.7490   11.3210 C.2   401  FLC401      0.3880
      5  CG        -0.9950    8.9040   10.9350 C.3   401  FLC401      0.0890
      6  CGC       -1.5290    8.0990   12.1250 C.2   401  FLC401      0.3593
      7  OA1       -1.5670   11.9610    9.7640 O.co2 401  FLC401     -0.2463
      8  OA2       -0.4720   12.7170   11.4890 O.co2 401  FLC401     -0.2463
      9  OB1        2.2510    8.7330   10.3300 O.co2 401  FLC401     -0.2431
     10  OB2        1.6980    8.0010   12.3100 O.co2 401  FLC401     -0.2431
     11  OG1       -1.8640    6.8900   11.9780 O.co2 401  FLC401     -0.2463
     12  OG2       -1.6420    8.6440   13.2560 O.co2 401  FLC401     -0.2463
     13  OHB        0.0990   10.2120   12.6240 O.3   401  FLC401     -0.3764
     14  HA1        1.3710   11.2040   10.4990 H     401  FLC401      0.0413
     15  HA2        0.4450   10.4760    9.4400 H     401  FLC401      0.0413
     16  HG1       -0.7770    8.2960   10.2100 H     401  FLC401      0.0413
     17  HG2       -1.6760    9.5280   10.6390 H     401  FLC401      0.0413
     18  HOB        0.8440   10.2030   13.0280 H     401  FLC401      0.2109
@<TRIPOS>BOND
     1    15     2    1
     2     7     1   ar
     3    16     5    1
     4     9     4   ar
     5     2    14    1
     6     2     1    1
     7     2     3    1
     8     1     8   ar
     9    17     5    1
    10     5     3    1
    11     5     6    1
    12     4     3    1
    13     4    10   ar
    14     3    13    1
    15    11     6   ar
    16     6    12   ar
    17    13    18    1
