8O5
  -OEChem-02242320013D

 75 78  0     1  0  0  0  0  0999 V2000
    9.0040   -0.3830   -1.6820 C   0  0  0  0  0  0  0  0  0  0  0  0
    3.6180   -0.7830    1.8190 O   0  0  0  0  0  0  0  0  0  0  0  0
    3.4290    0.0160    0.9200 C   0  0  0  0  0  0  0  0  0  0  0  0
    4.4980    0.3060   -0.0380 C   0  0  0  0  0  0  0  0  0  0  0  0
    5.6900   -0.3130    0.0740 C   0  0  0  0  0  0  0  0  0  0  0  0
    6.7650   -0.0220   -0.8890 C   0  0  0  0  0  0  0  0  0  0  0  0
    6.5520    0.8960   -1.9230 C   0  0  0  0  0  0  0  0  0  0  0  0
    7.5590    1.1550   -2.8280 C   0  0  0  0  0  0  0  0  0  0  0  0
    8.7840    0.5220   -2.7050 C   0  0  0  0  0  0  0  0  0  0  0  0
    8.0030   -0.6610   -0.7750 C   0  0  0  0  0  0  0  0  0  0  0  0
    2.2370    0.6340    0.8070 N   0  0  0  0  0  0  0  0  0  0  0  0
    1.1340    0.2660    1.6980 C   0  0  1  0  0  0  0  0  0  0  0  0
    0.6120    1.5170    2.4080 C   0  0  0  0  0  0  0  0  0  0  0  0
    1.7180    2.1020    3.2890 C   0  0  0  0  0  0  0  0  0  0  0  0
    1.4250    3.4190    4.0090 C   0  0  0  0  0  0  0  0  0  0  0  0
    1.4860    2.1110    4.8010 C   0  0  0  0  0  0  0  0  0  0  0  0
    0.0220   -0.3540    0.8910 C   0  0  0  0  0  0  0  0  0  0  0  0
    0.1400   -0.4760   -0.3100 O   0  0  0  0  0  0  0  0  0  0  0  0
   -1.1030   -0.7720    1.5030 N   0  0  0  0  0  0  0  0  0  0  0  0
   -2.1370   -1.4730    0.7370 C   0  0  1  0  0  0  0  0  0  0  0  0
   -1.8490   -2.9760    0.7480 C   0  0  0  0  0  0  0  0  0  0  0  0
   -2.8720   -3.6970   -0.1310 C   0  0  1  0  0  0  0  0  0  0  0  0
   -2.7230   -3.2730   -1.5750 C   0  0  0  0  0  0  0  0  0  0  0  0
   -3.1270   -2.2270   -2.0370 O   0  0  0  0  0  0  0  0  0  0  0  0
   -2.0760   -4.2230   -2.2720 N   0  0  0  0  0  0  0  0  0  0  0  0
   -1.7140   -5.3590   -1.4160 C   0  0  0  0  0  0  0  0  0  0  0  0
   -2.5930   -5.2180   -0.1490 C   0  0  0  0  0  0  0  0  0  0  0  0
   -3.5050   -1.2120    1.3700 C   0  0  1  0  0  0  0  0  0  0  0  0
   -3.5060   -1.6870    2.7170 O   0  0  0  0  0  0  0  0  0  0  0  0
   -3.7890    0.2690    1.3590 C   0  0  0  0  0  0  0  0  0  0  0  0
   -3.8830    0.8750    2.4050 O   0  0  0  0  0  0  0  0  0  0  0  0
   -3.9370    0.9180    0.1870 N   0  0  0  0  0  0  0  0  0  0  0  0
   -4.2130    2.3570    0.1770 C   0  0  0  0  0  0  0  0  0  0  0  0
   -4.3330    2.8350   -1.2470 C   0  0  0  0  0  0  0  0  0  0  0  0
   -5.5640    2.8290   -1.8760 C   0  0  0  0  0  0  0  0  0  0  0  0
   -3.2140    3.2840   -1.9220 C   0  0  0  0  0  0  0  0  0  0  0  0
   -3.3260    3.7290   -3.2270 C   0  0  0  0  0  0  0  0  0  0  0  0
   -4.5570    3.7230   -3.8550 C   0  0  0  0  0  0  0  0  0  0  0  0
   -5.6750    3.2670   -3.1820 C   0  0  0  0  0  0  0  0  0  0  0  0
    9.9610   -0.8760   -1.5950 H   0  0  0  0  0  0  0  0  0  0  0  0
    4.3300    1.0140   -0.8360 H   0  0  0  0  0  0  0  0  0  0  0  0
    5.8580   -1.0220    0.8720 H   0  0  0  0  0  0  0  0  0  0  0  0
    5.5980    1.3930   -2.0170 H   0  0  0  0  0  0  0  0  0  0  0  0
    7.3970    1.8630   -3.6270 H   0  0  0  0  0  0  0  0  0  0  0  0
    9.5720    0.7360   -3.4120 H   0  0  0  0  0  0  0  0  0  0  0  0
    8.1750   -1.3710    0.0200 H   0  0  0  0  0  0  0  0  0  0  0  0
    2.1100    1.3230    0.1360 H   0  0  0  0  0  0  0  0  0  0  0  0
    1.4880   -0.4510    2.4380 H   0  0  0  0  0  0  0  0  0  0  0  0
    0.3090    2.2560    1.6660 H   0  0  0  0  0  0  0  0  0  0  0  0
   -0.2440    1.2520    3.0280 H   0  0  0  0  0  0  0  0  0  0  0  0
    2.7360    1.9370    2.9360 H   0  0  0  0  0  0  0  0  0  0  0  0
    2.2500    4.1210    4.1320 H   0  0  0  0  0  0  0  0  0  0  0  0
    0.4440    3.8690    3.8560 H   0  0  0  0  0  0  0  0  0  0  0  0
    0.5450    1.7010    5.1680 H   0  0  0  0  0  0  0  0  0  0  0  0
    2.3520    1.9520    5.4440 H   0  0  0  0  0  0  0  0  0  0  0  0
   -1.2280   -0.6100    2.4510 H   0  0  0  0  0  0  0  0  0  0  0  0
   -2.1360   -1.1100   -0.2900 H   0  0  0  0  0  0  0  0  0  0  0  0
   -0.8460   -3.1570    0.3610 H   0  0  0  0  0  0  0  0  0  0  0  0
   -1.9180   -3.3520    1.7690 H   0  0  0  0  0  0  0  0  0  0  0  0
   -3.8840   -3.4990    0.2220 H   0  0  0  0  0  0  0  0  0  0  0  0
   -1.8750   -4.1660   -3.2190 H   0  0  0  0  0  0  0  0  0  0  0  0
   -1.9320   -6.2980   -1.9240 H   0  0  0  0  0  0  0  0  0  0  0  0
   -0.6580   -5.3090   -1.1500 H   0  0  0  0  0  0  0  0  0  0  0  0
   -2.0460   -5.5260    0.7420 H   0  0  0  0  0  0  0  0  0  0  0  0
   -3.5190   -5.7850   -0.2520 H   0  0  0  0  0  0  0  0  0  0  0  0
   -4.2740   -1.7330    0.8000 H   0  0  0  0  0  0  0  0  0  0  0  0
   -2.8450   -1.2660    3.2830 H   0  0  0  0  0  0  0  0  0  0  0  0
   -3.8610    0.4330   -0.6490 H   0  0  0  0  0  0  0  0  0  0  0  0
   -5.1450    2.5520    0.7060 H   0  0  0  0  0  0  0  0  0  0  0  0
   -3.3970    2.8860    0.6700 H   0  0  0  0  0  0  0  0  0  0  0  0
   -6.4390    2.4820   -1.3470 H   0  0  0  0  0  0  0  0  0  0  0  0
   -2.2520    3.2890   -1.4310 H   0  0  0  0  0  0  0  0  0  0  0  0
   -2.4520    4.0850   -3.7520 H   0  0  0  0  0  0  0  0  0  0  0  0
   -4.6440    4.0700   -4.8740 H   0  0  0  0  0  0  0  0  0  0  0  0
   -6.6360    3.2630   -3.6740 H   0  0  0  0  0  0  0  0  0  0  0  0
 37 38  2  0  0  0  0
 36 37  1  0  0  0  0
 38 39  1  0  0  0  0
 34 36  2  0  0  0  0
 35 39  2  0  0  0  0
 34 35  1  0  0  0  0
 33 34  1  0  0  0  0
 26 27  1  0  0  0  0
 25 26  1  0  0  0  0
 32 33  1  0  0  0  0
 22 27  1  0  0  0  0
 23 25  1  0  0  0  0
 30 31  2  0  0  0  0
 30 32  1  0  0  0  0
 28 30  1  0  0  0  0
 22 23  1  0  0  0  0
 23 24  2  0  0  0  0
 21 22  1  0  0  0  0
 20 21  1  0  0  0  0
 20 28  1  0  0  0  0
 19 20  1  0  0  0  0
 17 18  2  0  0  0  0
 28 29  1  0  0  0  0
  7  8  2  0  0  0  0
  8  9  1  0  0  0  0
  6  7  1  0  0  0  0
 17 19  1  0  0  0  0
 12 17  1  0  0  0  0
  1  9  2  0  0  0  0
  5  6  1  0  0  0  0
  6 10  2  0  0  0  0
  4  5  2  0  0  0  0
  2  3  2  0  0  0  0
  1 10  1  0  0  0  0
  3  4  1  0  0  0  0
  3 11  1  0  0  0  0
 11 12  1  0  0  0  0
 12 13  1  0  0  0  0
 13 14  1  0  0  0  0
 14 15  1  0  0  0  0
 14 16  1  0  0  0  0
 15 16  1  0  0  0  0
  1 40  1  0  0  0  0
  4 41  1  0  0  0  0
  5 42  1  0  0  0  0
  7 43  1  0  0  0  0
  8 44  1  0  0  0  0
  9 45  1  0  0  0  0
 10 46  1  0  0  0  0
 11 47  1  0  0  0  0
 12 48  1  0  0  0  0
 13 49  1  0  0  0  0
 13 50  1  0  0  0  0
 14 51  1  0  0  0  0
 15 52  1  0  0  0  0
 15 53  1  0  0  0  0
 16 54  1  0  0  0  0
 16 55  1  0  0  0  0
 19 56  1  0  0  0  0
 20 57  1  0  0  0  0
 21 58  1  0  0  0  0
 21 59  1  0  0  0  0
 22 60  1  0  0  0  0
 25 61  1  0  0  0  0
 26 62  1  0  0  0  0
 26 63  1  0  0  0  0
 27 64  1  0  0  0  0
 27 65  1  0  0  0  0
 28 66  1  0  0  0  0
 29 67  1  0  0  0  0
 32 68  1  0  0  0  0
 33 69  1  0  0  0  0
 33 70  1  0  0  0  0
 35 71  1  0  0  0  0
 36 72  1  0  0  0  0
 37 73  1  0  0  0  0
 38 74  1  0  0  0  0
 39 75  1  0  0  0  0
M  END
> <OPENEYE_ISO_SMILES>
c1ccc(cc1)CNC(=O)[C@@H]([C@H](C[C@@H]2CCNC2=O)NC(=O)[C@H](CC3CC3)NC(=O)/C=C/c4ccccc4)O

> <OPENEYE_INCHI>
InChI=1S/C30H36N4O5/c35-26(14-13-20-7-3-1-4-8-20)33-25(17-21-11-12-21)29(38)34-24(18-23-15-16-31-28(23)37)27(36)30(39)32-19-22-9-5-2-6-10-22/h1-10,13-14,21,23-25,27,36H,11-12,15-19H2,(H,31,37)(H,32,39)(H,33,35)(H,34,38)/b14-13+/t23-,24-,25-,27+/m0/s1

> <OPENEYE_INCHIKEY>
VXPGYVPTHDUTNQ-BXCMFHCISA-N

> <FORMULA>
C30H36N4O5

$$$$
