@<TRIPOS>MOLECULE
/home/pku/3cl/gett_pdb/7S6Z/7S6Z_mol2/ligand/7S6Z_I71.pdb
 41 43 0 0 0
SMALL
GASTEIGER

@<TRIPOS>ATOM
      1  C1       -13.7100   -9.9760  -16.6880 C.2   401  I71401      0.2736
      2  C11       -9.6410  -17.1850  -18.2420 C.3   401  I71401      0.1727
      3  C12       -9.8140  -15.9930  -17.3350 C.2   401  I71401      0.2459
      4  C13       -8.1570  -14.8040  -18.7850 C.3   401  I71401      0.0939
      5  C14       -9.2400  -13.7010  -16.8960 C.3   401  I71401      0.1535
      6  C15      -10.6120  -13.1710  -17.1860 C.2   401  I71401      0.2595
      7  C16       -7.5820  -13.3980  -18.6550 C.3   401  I71401      0.0220
      8  C17      -12.7190  -12.2980  -16.4450 C.3   401  I71401      0.1351
      9  C18       -6.7270  -13.1810  -17.4060 C.3   401  I71401      0.0037
     10  C19      -13.7510  -13.0410  -15.5750 C.3   401  I71401      0.0340
     11  C20      -13.8370  -14.5300  -15.9500 C.3   401  I71401      0.0818
     12  C21      -14.5830  -14.7750  -17.2570 C.3   401  I71401      0.0326
     13  C22      -15.4130  -16.0380  -17.0170 C.3   401  I71401      0.1156
     14  C23       -6.4270  -14.2930  -16.3980 C.3   401  I71401      0.0001
     15  C24      -14.6220  -15.3570  -14.9560 C.2   401  I71401      0.2410
     16  C25       -5.7530  -11.9990  -17.3800 C.3   401  I71401      0.0001
     17  C26      -11.3150  -16.3790  -19.9130 C.3   401  I71401      0.0022
     18  C27       -6.0240  -21.2260  -17.6250 C.3   401  I71401      0.0218
     19  C28       -5.8600  -20.6700  -15.2080 C.3   401  I71401      0.0218
     20  C29       -4.9510  -19.1140  -16.8580 C.3   401  I71401      0.0218
     21  C3       -14.3860   -8.4570  -18.4890 C.3   401  I71401      0.1153
     22  C30      -10.8940  -17.5590  -19.0460 C.3   401  I71401      0.0270
     23  C31      -12.0400  -17.9650  -18.1250 C.3   401  I71401      0.0022
     24  C32      -10.6080  -18.7670  -19.9280 C.3   401  I71401      0.0022
     25  C34       -8.1940  -12.7200  -17.4330 C.3   401  I71401      0.0289
     26  C4       -13.8880   -8.1870  -19.8950 C.3   401  I71401      0.0253
     27  C7        -6.0810  -20.1050  -16.6030 C.3   401  I71401      0.0804
     28  C8       -12.5630  -10.7950  -16.1850 C.3   401  I71401      0.2487
     29  C9        -7.9070  -18.7130  -17.6130 C.2   401  I71401      0.3395
     30  N10       -9.1630  -18.3000  -17.4590 N.am  401  I71401     -0.1796
     31  N13       -9.1050  -14.9240  -17.6740 N.am  401  I71401     -0.2716
     32  N16      -11.3970  -12.8460  -16.1670 N.am  401  I71401     -0.2027
     33  N2       -13.3960   -9.1110  -17.6550 N.am  401  I71401     -0.2032
     34  N23      -15.4560  -16.1860  -15.5730 N.am  401  I71401     -0.2054
     35  N8        -7.3950  -19.4550  -16.6300 N.am  401  I71401     -0.1906
     36  O26      -14.4810  -15.2670  -13.7450 O.2   401  I71401     -0.2734
     37  O29       -7.2910  -18.3940  -18.6230 O.2   401  I71401     -0.2492
     38  O33      -10.5330  -16.0010  -16.3380 O.2   401  I71401     -0.2730
     39  O38      -10.9920  -13.0760  -18.3380 O.2   401  I71401     -0.2716
     40  O5       -14.8040  -10.1290  -16.1900 O.2   401  I71401     -0.2705
     41  O9       -11.3620  -10.2800  -16.8120 O.3   401  I71401     -0.2113
@<TRIPOS>BOND
     1    24    22    1
     2    17    22    1
     3    26    21    1
     4    22     2    1
     5    22    23    1
     6     4     7    1
     7     4    31    1
     8     7    25    1
     9     7     9    1
    10    37    29    2
    11    21    33    1
    12    39     6    2
    13     2    30    1
    14     2     3    1
    15    31     3   am
    16    31     5    1
    17    33     1   am
    18    18    27    1
    19    29    30   am
    20    29    35   am
    21    25     9    1
    22    25     5    1
    23     9    16    1
    24     9    14    1
    25     3    38    2
    26    12    13    1
    27    12    11    1
    28     6     5    1
    29     6    32   am
    30    13    34    1
    31    20    27    1
    32    41    28    1
    33     1    40    2
    34     1    28    1
    35    35    27    1
    36    27    19    1
    37     8    28    1
    38     8    32    1
    39     8    10    1
    40    11    10    1
    41    11    15    1
    42    34    15   am
    43    15    36    2
