W4S
  -OEChem-02242320043D

 19 20  0     0  0  0  0  0  0999 V2000
    3.0910   -0.6980   -0.0010 C   0  0  0  0  0  0  0  0  0  0  0  0
    1.7760    1.4470    0.0000 C   0  0  0  0  0  0  0  0  0  0  0  0
    0.4910    1.8350    0.0000 C   0  0  0  0  0  0  0  0  0  0  0  0
   -0.3180    0.6170    0.0000 C   0  0  0  0  0  0  0  0  0  0  0  0
   -1.6930    0.3370    0.0000 C   0  0  0  0  0  0  0  0  0  0  0  0
   -1.1910   -1.9150   -0.0000 C   0  0  0  0  0  0  0  0  0  0  0  0
    0.5900   -0.4580    0.0000 C   0  0  0  0  0  0  0  0  0  0  0  0
    1.8480    0.0780    0.0000 N   0  0  0  0  0  0  0  0  0  0  0  0
   -2.6250    1.3590   -0.0000 N   0  0  0  0  0  0  0  0  0  0  0  0
   -2.0780   -0.9360   -0.0000 N   0  0  0  0  0  0  0  0  0  0  0  0
    0.1060   -1.6990    0.0000 N   0  0  0  0  0  0  0  0  0  0  0  0
    3.4000   -0.8910    1.0270 H   0  0  0  0  0  0  0  0  0  0  0  0
    2.9280   -1.6460   -0.5150 H   0  0  0  0  0  0  0  0  0  0  0  0
    3.8700   -0.1360   -0.5150 H   0  0  0  0  0  0  0  0  0  0  0  0
    2.6260    2.1130   -0.0040 H   0  0  0  0  0  0  0  0  0  0  0  0
    0.1250    2.8510    0.0010 H   0  0  0  0  0  0  0  0  0  0  0  0
   -1.5460   -2.9350   -0.0000 H   0  0  0  0  0  0  0  0  0  0  0  0
   -2.3320    2.2830   -0.0010 H   0  0  0  0  0  0  0  0  0  0  0  0
   -3.5730    1.1510   -0.0010 H   0  0  0  0  0  0  0  0  0  0  0  0
  1  8  1  0  0  0  0
  2  8  1  0  0  0  0
  2  3  2  0  0  0  0
  7  8  1  0  0  0  0
  3  4  1  0  0  0  0
  4  7  2  0  0  0  0
  7 11  1  0  0  0  0
  4  5  1  0  0  0  0
  6 11  2  0  0  0  0
  5 10  2  0  0  0  0
  5  9  1  0  0  0  0
  6 10  1  0  0  0  0
  1 12  1  0  0  0  0
  1 13  1  0  0  0  0
  1 14  1  0  0  0  0
  2 15  1  0  0  0  0
  3 16  1  0  0  0  0
  6 17  1  0  0  0  0
  9 18  1  0  0  0  0
  9 19  1  0  0  0  0
M  END
> <OPENEYE_ISO_SMILES>
Cn1ccc2c1ncnc2N

> <OPENEYE_INCHI>
InChI=1S/C7H8N4/c1-11-3-2-5-6(8)9-4-10-7(5)11/h2-4H,1H3,(H2,8,9,10)

> <OPENEYE_INCHIKEY>
KSOREMDAQHJJKY-UHFFFAOYSA-N

> <FORMULA>
C7H8N4

$$$$
