@<TRIPOS>MOLECULE
/home/pku/3cl/gett_pdb/6L70/6L70_mol2/ligand/6L70_K36.pdb
 59 60 0 0 0
SMALL
GASTEIGER

@<TRIPOS>ATOM
      1  C7        16.1560   14.6540   -0.4040 C.3   401  K36401      0.1191
      2  O8        16.2010   13.2830   -0.7100 O.3   401  K36401     -0.4456
      3  C9        17.4200   12.7130   -0.2690 C.2   401  K36401      0.4012
      4  O10       17.4250   12.0030    0.6720 O.2   401  K36401     -0.2265
      5  C1        15.5440   14.9610    0.9760 C.ar  401  K36401     -0.0103
      6  C2        14.3460   14.3960    1.3740 C.ar  401  K36401     -0.0554
      7  C3        13.8150   14.7140    2.6090 C.ar  401  K36401     -0.0614
      8  C4        14.4680   15.6110    3.4400 C.ar  401  K36401     -0.0617
      9  C5        15.6580   16.1880    3.0390 C.ar  401  K36401     -0.0614
     10  C6        16.1950   15.8630    1.8050 C.ar  401  K36401     -0.0554
     11  N11       18.6750   13.0180   -0.9850 N.am  401  K36401     -0.2698
     12  C12       19.9410   12.4060   -0.5880 C.3   401  K36401      0.1027
     13  C17       20.2200   12.8980    0.8420 C.2   401  K36401      0.2338
     14  O18       20.1040   14.0530    1.1270 O.2   401  K36401     -0.2738
     15  C13       21.0300   12.8400   -1.5420 C.3   401  K36401     -0.0235
     16  C14       20.9240   12.0390   -2.8480 C.3   401  K36401     -0.0446
     17  C15       19.5790   12.2960   -3.5320 C.3   401  K36401     -0.0626
     18  C16       22.0060   12.4720   -3.8370 C.3   401  K36401     -0.0626
     19  N19       20.6170   11.9490    1.8840 N.am  401  K36401     -0.3084
     20  C20       20.8830   12.4400    3.2480 C.3   401  K36401      0.0522
     21  C21       22.3600   12.1960    3.5810 C.3   401  K36401      0.1010
     22  O22       22.6720   12.8950    4.7770 O.3   401  K36401     -0.3873
     23  C24       19.9760   11.7250    4.2520 C.3   401  K36401     -0.0209
     24  C25       18.4820   12.1770    4.0970 C.3   401  K36401      0.0387
     25  C26       18.2770   13.6460    4.5240 C.3   401  K36401     -0.0262
     26  C27       16.9660   13.7240    5.1870 C.3   401  K36401      0.0123
     27  N28       16.6880   12.3220    5.6770 N.am  401  K36401     -0.3151
     28  C29       17.6490   11.3980    4.9670 C.2   401  K36401      0.2162
     29  O30       17.6730   10.2340    5.1340 O.2   401  K36401     -0.2755
     30  H2        17.0610   15.0030   -0.4220 H     401  K36401      0.0749
     31  H1        15.6240   15.1020   -1.0800 H     401  K36401      0.0749
     32  H3        13.8990   13.8050    0.8120 H     401  K36401      0.0621
     33  H18       13.0170   14.3240    2.8840 H     401  K36401      0.0618
     34  H28       14.1050   15.8240    4.2700 H     401  K36401      0.0618
     35  H29       16.0950   16.7920    3.5950 H     401  K36401      0.0618
     36  H30       16.9950   16.2510    1.5310 H     401  K36401      0.0621
     37  H4        18.6610   13.5660   -1.6480 H     401  K36401      0.1528
     38  H5        19.9070   11.4370   -0.6130 H     401  K36401      0.0596
     39  H6        21.8970   12.6810   -1.1360 H     401  K36401      0.0290
     40  H7        20.9330   13.7850   -1.7350 H     401  K36401      0.0290
     41  H8        21.0220   11.1030   -2.6130 H     401  K36401      0.0296
     42  H9        19.6390   12.0440   -4.4670 H     401  K36401      0.0232
     43  H10       19.3570   13.2380   -3.4640 H     401  K36401      0.0232
     44  H11       18.8900   11.7690   -3.0980 H     401  K36401      0.0232
     45  H12       21.7290   13.2870   -4.2830 H     401  K36401      0.0232
     46  H13       22.8360   12.6300   -3.3600 H     401  K36401      0.0232
     47  H14       22.1410   11.7730   -4.4960 H     401  K36401      0.0232
     48  H15       20.6940   11.1120    1.7020 H     401  K36401      0.1491
     49  H16       20.6940   13.3910    3.3010 H     401  K36401      0.0525
     50  H17       22.9200   12.5160    2.8560 H     401  K36401      0.0638
     51  H19       23.3610   13.3770    4.6520 H     401  K36401      0.2100
     52  H20       20.0330   10.7680    4.1030 H     401  K36401      0.0291
     53  H21       20.2770   11.9310    5.1510 H     401  K36401      0.0291
     54  H22       18.2020   12.0820    3.1740 H     401  K36401      0.0395
     55  H23       18.9740   13.9080    5.1450 H     401  K36401      0.0288
     56  H24       18.2830   14.2190    3.7410 H     401  K36401      0.0288
     57  H25       16.2850   13.9980    4.5520 H     401  K36401      0.0462
     58  H26       17.0040   14.3390    5.9350 H     401  K36401      0.0462
     59  H27       16.0920   12.0930    6.2530 H     401  K36401      0.1487
@<TRIPOS>BOND
     1    47    18    1
     2    42    17    1
     3    45    18    1
     4    18    46    1
     5    18    16    1
     6    17    43    1
     7    17    44    1
     8    17    16    1
     9    16    41    1
    10    16    15    1
    11    40    15    1
    12    37    11    1
    13    15    39    1
    14    15    12    1
    15    31     1    1
    16    11    12    1
    17    11     3   am
    18     2     1    1
    19     2     3    1
    20    38    12    1
    21    12    13    1
    22    30     1    1
    23     1     5    1
    24     3     4    2
    25    32     6    1
    26    13    14    2
    27    13    19   am
    28     5     6   ar
    29     5    10   ar
    30     6     7   ar
    31    36    10    1
    32    48    19    1
    33    10     9   ar
    34    19    20    1
    35     7    33    1
    36     7     8   ar
    37    50    21    1
    38     9     8   ar
    39     9    35    1
    40    54    24    1
    41    20    49    1
    42    20    21    1
    43    20    23    1
    44     8    34    1
    45    21    22    1
    46    56    25    1
    47    24    23    1
    48    24    25    1
    49    24    28    1
    50    52    23    1
    51    23    53    1
    52    25    55    1
    53    25    26    1
    54    57    26    1
    55    51    22    1
    56    28    29    2
    57    28    27   am
    58    26    27    1
    59    26    58    1
    60    27    59    1
