QTF
  -OEChem-02242320033D

 42 46  0     1  0  0  0  0  0999 V2000
   -0.6290    3.5480    0.2760 C   0  0  0  0  0  0  0  0  0  0  0  0
   -2.4850    2.1930    0.1230 C   0  0  0  0  0  0  0  0  0  0  0  0
   -2.2620   -1.4760   -0.1210 C   0  0  0  0  0  0  0  0  0  0  0  0
   -3.3180   -2.3560   -0.2070 C   0  0  0  0  0  0  0  0  0  0  0  0
   -4.6240   -1.8840   -0.2060 C   0  0  0  0  0  0  0  0  0  0  0  0
   -4.8790   -0.5300   -0.1180 C   0  0  0  0  0  0  0  0  0  0  0  0
    1.4980    0.1730    1.2660 C   0  0  0  0  0  0  0  0  0  0  0  0
    4.0570    0.0870   -1.1430 C   0  0  0  0  0  0  0  0  0  0  0  0
    2.7660   -0.5520   -0.7030 C   0  0  2  0  0  0  0  0  0  0  0  0
    1.5640    0.3460   -1.0770 C   0  0  0  0  0  0  0  0  0  0  0  0
   -0.2530    1.2780    0.1170 C   0  0  0  0  0  0  0  0  0  0  0  0
   -1.6370    1.0760    0.0710 C   0  0  0  0  0  0  0  0  0  0  0  0
   -2.5060   -0.1070   -0.0320 C   0  0  0  0  0  0  0  0  0  0  0  0
   -3.8250    0.3730   -0.0300 C   0  0  0  0  0  0  0  0  0  0  0  0
    2.7140   -0.6530    0.8260 C   0  0  0  0  0  0  0  0  0  0  0  0
    4.0200   -0.3430    1.5550 C   0  0  0  0  0  0  0  0  0  0  0  0
    3.6420   -1.4700    2.5330 C   0  0  0  0  0  0  0  0  0  0  0  0
    2.7900   -2.0680    1.3980 C   0  0  0  0  0  0  0  0  0  0  0  0
   -5.6520   -2.7560   -0.2910 F   0  0  0  0  0  0  0  0  0  0  0  0
    2.6290   -1.8190   -1.2800 F   0  0  0  0  0  0  0  0  0  0  0  0
    0.6220    0.2070    0.0640 N   0  0  2  0  0  0  0  0  0  0  0  0
   -3.7850    1.7550    0.0520 N   0  0  0  0  0  0  0  0  0  0  0  0
   -1.9360    3.4030    0.2250 N   0  0  0  0  0  0  0  0  0  0  0  0
    0.2030    2.5250    0.2240 N   0  0  0  0  0  0  0  0  0  0  0  0
    4.1570    1.2910   -1.1700 O   0  0  0  0  0  0  0  0  0  0  0  0
    5.0970   -0.6800   -1.5060 O   0  0  0  0  0  0  0  0  0  0  0  0
   -0.2200    4.5440    0.3580 H   0  0  0  0  0  0  0  0  0  0  0  0
   -1.2470   -1.8460   -0.1230 H   0  0  0  0  0  0  0  0  0  0  0  0
   -3.1300   -3.4180   -0.2770 H   0  0  0  0  0  0  0  0  0  0  0  0
   -5.8980   -0.1720   -0.1180 H   0  0  0  0  0  0  0  0  0  0  0  0
    0.9860   -0.3130    2.0960 H   0  0  0  0  0  0  0  0  0  0  0  0
    1.8010    1.1830    1.5440 H   0  0  0  0  0  0  0  0  0  0  0  0
    1.8840    1.3830   -1.1820 H   0  0  0  0  0  0  0  0  0  0  0  0
    1.1020   -0.0030   -2.0000 H   0  0  0  0  0  0  0  0  0  0  0  0
    4.9120   -0.5570    0.9650 H   0  0  0  0  0  0  0  0  0  0  0  0
    4.0420    0.6460    2.0130 H   0  0  0  0  0  0  0  0  0  0  0  0
    4.4850   -2.0980    2.8230 H   0  0  0  0  0  0  0  0  0  0  0  0
    3.0560   -1.1290    3.3860 H   0  0  0  0  0  0  0  0  0  0  0  0
    1.8280   -2.4580    1.7320 H   0  0  0  0  0  0  0  0  0  0  0  0
    3.3350   -2.7680    0.7640 H   0  0  0  0  0  0  0  0  0  0  0  0
   -4.5650    2.3310    0.0690 H   0  0  0  0  0  0  0  0  0  0  0  0
    5.9040   -0.2250   -1.7810 H   0  0  0  0  0  0  0  0  0  0  0  0
  8 25  2  0  0  0  0
 10 21  1  0  0  0  0
 11 12  2  0  0  0  0
 12 13  1  0  0  0  0
 13 14  2  0  0  0  0
  5  6  2  0  0  0  0
  3  4  2  0  0  0  0
  4  5  1  0  0  0  0
  5 19  1  0  0  0  0
  6 14  1  0  0  0  0
 14 22  1  0  0  0  0
  2 22  1  0  0  0  0
  2 23  2  0  0  0  0
  1 23  1  0  0  0  0
  1 24  2  0  0  0  0
 11 21  1  0  0  0  0
  7 21  1  0  0  0  0
  7 15  1  0  0  0  0
 15 16  1  0  0  0  0
 16 17  1  0  0  0  0
 17 18  1  0  0  0  0
  9 10  1  0  0  0  0
  9 20  1  0  0  0  0
  8  9  1  0  0  0  0
  8 26  1  0  0  0  0
  9 15  1  0  0  0  0
 11 24  1  0  0  0  0
  2 12  1  0  0  0  0
  3 13  1  0  0  0  0
 15 18  1  0  0  0  0
  1 27  1  0  0  0  0
  3 28  1  0  0  0  0
  4 29  1  0  0  0  0
  6 30  1  0  0  0  0
  7 31  1  0  0  0  0
  7 32  1  0  0  0  0
 10 33  1  0  0  0  0
 10 34  1  0  0  0  0
 16 35  1  0  0  0  0
 16 36  1  0  0  0  0
 17 37  1  0  0  0  0
 17 38  1  0  0  0  0
 18 39  1  0  0  0  0
 18 40  1  0  0  0  0
 22 41  1  0  0  0  0
 26 42  1  0  0  0  0
M  END
> <OPENEYE_ISO_SMILES>
c1cc2c(cc1F)[nH]c3c2c(ncn3)[N@]4C[C@](C5(C4)CCC5)(C(=O)O)F

> <OPENEYE_INCHI>
InChI=1S/C18H16F2N4O2/c19-10-2-3-11-12(6-10)23-14-13(11)15(22-9-21-14)24-7-17(4-1-5-17)18(20,8-24)16(25)26/h2-3,6,9H,1,4-5,7-8H2,(H,25,26)(H,21,22,23)/t18-/m1/s1

> <OPENEYE_INCHIKEY>
GUQNCACKKADRCK-GOSISDBHSA-N

> <FORMULA>
C18H16F2N4O2

$$$$
