I71
  -OEChem-02242320023D

 91 93  0     1  0  0  0  0  0999 V2000
   -5.1280   -1.7490   -0.6100 C   0  0  0  0  0  0  0  0  0  0  0  0
    3.0990    0.4290    0.2640 C   0  0  2  0  0  0  0  0  0  0  0  0
    1.8720    0.1180   -0.5540 C   0  0  0  0  0  0  0  0  0  0  0  0
    0.8010   -1.2020    1.3360 C   0  0  0  0  0  0  0  0  0  0  0  0
   -0.3260   -1.1480   -0.7140 C   0  0  2  0  0  0  0  0  0  0  0  0
   -1.5180   -0.3110   -0.3290 C   0  0  0  0  0  0  0  0  0  0  0  0
    0.2470   -2.6310    1.1480 C   0  0  2  0  0  0  0  0  0  0  0  0
   -3.8380    0.3680   -0.6340 C   0  0  1  0  0  0  0  0  0  0  0  0
    0.7600   -3.4540   -0.0360 C   0  0  0  0  0  0  0  0  0  0  0  0
   -3.7960    1.7940   -1.1870 C   0  0  0  0  0  0  0  0  0  0  0  0
   -4.9620    2.6000   -0.6100 C   0  0  2  0  0  0  0  0  0  0  0  0
   -4.9570    4.0390   -1.1740 C   0  0  0  0  0  0  0  0  0  0  0  0
   -4.1640    4.8000   -0.0880 C   0  0  0  0  0  0  0  0  0  0  0  0
    2.0380   -2.9740   -0.7270 C   0  0  0  0  0  0  0  0  0  0  0  0
   -4.7900    2.7850    0.8820 C   0  0  0  0  0  0  0  0  0  0  0  0
    0.5730   -4.9710    0.0270 C   0  0  0  0  0  0  0  0  0  0  0  0
    2.6170    2.8660   -0.0010 C   0  0  0  0  0  0  0  0  0  0  0  0
    7.9970   -1.2620    0.1050 C   0  0  0  0  0  0  0  0  0  0  0  0
    8.2130    1.1560    0.6960 C   0  0  0  0  0  0  0  0  0  0  0  0
    8.9380    0.3500   -1.5560 C   0  0  0  0  0  0  0  0  0  0  0  0
   -5.3210   -3.3190    1.2420 C   0  0  0  0  0  0  0  0  0  0  0  0
    2.8950    1.7500    1.0080 C   0  0  0  0  0  0  0  0  0  0  0  0
    1.7080    1.6190    1.9640 C   0  0  0  0  0  0  0  0  0  0  0  0
    4.1570    2.0870    1.8050 C   0  0  0  0  0  0  0  0  0  0  0  0
   -0.4960   -2.5950   -0.2040 C   0  0  2  0  0  0  0  0  0  0  0  0
   -5.4920   -3.2720    2.7620 C   0  0  0  0  0  0  0  0  0  0  0  0
    7.9140    0.1680   -0.4340 C   0  0  0  0  0  0  0  0  0  0  0  0
   -5.0870   -0.3450   -1.1550 C   0  0  1  0  0  0  0  0  0  0  0  0
    5.4990    0.3130   -0.1410 C   0  0  0  0  0  0  0  0  0  0  0  0
    4.2610    0.5410   -0.6220 N   0  0  0  0  0  0  0  0  0  0  0  0
    0.8960   -0.6550   -0.0380 N   0  0  0  0  0  0  0  0  0  0  0  0
   -2.6430   -0.3590   -1.0690 N   0  0  0  0  0  0  0  0  0  0  0  0
   -5.2750   -1.9540    0.7130 N   0  0  0  0  0  0  0  0  0  0  0  0
   -4.3480    4.0270    1.1450 N   0  0  0  0  0  0  0  0  0  0  0  0
    6.5680    0.4160   -0.9560 N   0  0  0  0  0  0  0  0  0  0  0  0
   -5.0180    1.9360    1.7180 O   0  0  0  0  0  0  0  0  0  0  0  0
    5.6520    0.0130    1.0270 O   0  0  0  0  0  0  0  0  0  0  0  0
    1.7630    0.5630   -1.6770 O   0  0  0  0  0  0  0  0  0  0  0  0
   -1.4650    0.4050    0.6480 O   0  0  0  0  0  0  0  0  0  0  0  0
   -5.0340   -2.6950   -1.3640 O   0  0  0  0  0  0  0  0  0  0  0  0
   -5.0500   -0.3890   -2.5830 O   0  0  0  0  0  0  0  0  0  0  0  0
    3.2680   -0.3720    0.9840 H   0  0  0  0  0  0  0  0  0  0  0  0
    0.1160   -0.6050    1.9370 H   0  0  0  0  0  0  0  0  0  0  0  0
    1.7860   -1.2350    1.8010 H   0  0  0  0  0  0  0  0  0  0  0  0
   -0.1910   -1.1400   -1.7960 H   0  0  0  0  0  0  0  0  0  0  0  0
   -0.1730   -3.1290    2.0220 H   0  0  0  0  0  0  0  0  0  0  0  0
   -3.8660    0.4020    0.4550 H   0  0  0  0  0  0  0  0  0  0  0  0
   -2.8540    2.2660   -0.9060 H   0  0  0  0  0  0  0  0  0  0  0  0
   -3.8780    1.7650   -2.2740 H   0  0  0  0  0  0  0  0  0  0  0  0
   -5.9090    2.1060   -0.8260 H   0  0  0  0  0  0  0  0  0  0  0  0
   -4.4420    4.0810   -2.1340 H   0  0  0  0  0  0  0  0  0  0  0  0
   -5.9720    4.4280   -1.2600 H   0  0  0  0  0  0  0  0  0  0  0  0
   -3.1070    4.8430   -0.3530 H   0  0  0  0  0  0  0  0  0  0  0  0
   -4.5630    5.8070    0.0350 H   0  0  0  0  0  0  0  0  0  0  0  0
    2.8430   -3.6820   -0.5320 H   0  0  0  0  0  0  0  0  0  0  0  0
    1.8660   -2.9050   -1.8010 H   0  0  0  0  0  0  0  0  0  0  0  0
    2.3140   -1.9940   -0.3390 H   0  0  0  0  0  0  0  0  0  0  0  0
   -0.0550   -5.2250    0.8800 H   0  0  0  0  0  0  0  0  0  0  0  0
    0.0980   -5.3170   -0.8910 H   0  0  0  0  0  0  0  0  0  0  0  0
    1.5450   -5.4520    0.1350 H   0  0  0  0  0  0  0  0  0  0  0  0
    1.7180    2.6260   -0.5690 H   0  0  0  0  0  0  0  0  0  0  0  0
    2.4710    3.8070    0.5290 H   0  0  0  0  0  0  0  0  0  0  0  0
    3.4630    2.9590   -0.6830 H   0  0  0  0  0  0  0  0  0  0  0  0
    8.9980   -1.4470    0.4930 H   0  0  0  0  0  0  0  0  0  0  0  0
    7.2670   -1.3920    0.9040 H   0  0  0  0  0  0  0  0  0  0  0  0
    7.7830   -1.9660   -0.7000 H   0  0  0  0  0  0  0  0  0  0  0  0
    9.2150    0.9710    1.0840 H   0  0  0  0  0  0  0  0  0  0  0  0
    8.1540    2.1740    0.3120 H   0  0  0  0  0  0  0  0  0  0  0  0
    7.4840    1.0260    1.4950 H   0  0  0  0  0  0  0  0  0  0  0  0
    8.7250   -0.3540   -2.3600 H   0  0  0  0  0  0  0  0  0  0  0  0
    8.8790    1.3690   -1.9390 H   0  0  0  0  0  0  0  0  0  0  0  0
    9.9390    0.1660   -1.1670 H   0  0  0  0  0  0  0  0  0  0  0  0
   -4.3920   -3.8360    0.9970 H   0  0  0  0  0  0  0  0  0  0  0  0
   -6.1610   -3.8530    0.7990 H   0  0  0  0  0  0  0  0  0  0  0  0
    0.8180    1.3390    1.4010 H   0  0  0  0  0  0  0  0  0  0  0  0
    1.9240    0.8520    2.7080 H   0  0  0  0  0  0  0  0  0  0  0  0
    1.5380    2.5720    2.4640 H   0  0  0  0  0  0  0  0  0  0  0  0
    4.0120    3.0280    2.3350 H   0  0  0  0  0  0  0  0  0  0  0  0
    4.3560    1.2920    2.5240 H   0  0  0  0  0  0  0  0  0  0  0  0
    5.0030    2.1800    1.1240 H   0  0  0  0  0  0  0  0  0  0  0  0
   -1.4630   -3.0790   -0.3410 H   0  0  0  0  0  0  0  0  0  0  0  0
   -4.6510   -2.7390    3.2060 H   0  0  0  0  0  0  0  0  0  0  0  0
   -6.4200   -2.7560    3.0070 H   0  0  0  0  0  0  0  0  0  0  0  0
   -5.5260   -4.2880    3.1560 H   0  0  0  0  0  0  0  0  0  0  0  0
   -5.9760    0.1970   -0.8320 H   0  0  0  0  0  0  0  0  0  0  0  0
    4.1390    0.7800   -1.5540 H   0  0  0  0  0  0  0  0  0  0  0  0
   -2.6610   -0.8750   -1.8900 H   0  0  0  0  0  0  0  0  0  0  0  0
   -5.3500   -1.1980    1.3160 H   0  0  0  0  0  0  0  0  0  0  0  0
   -4.1730    4.3670    2.0360 H   0  0  0  0  0  0  0  0  0  0  0  0
    6.4460    0.6550   -1.8880 H   0  0  0  0  0  0  0  0  0  0  0  0
   -4.2830   -0.8560   -2.9420 H   0  0  0  0  0  0  0  0  0  0  0  0
 22 24  1  0  0  0  0
 17 22  1  0  0  0  0
 21 26  1  0  0  0  0
  2 22  1  0  0  0  0
 22 23  1  0  0  0  0
  4  7  1  0  0  0  0
  4 31  1  0  0  0  0
  7 25  1  0  0  0  0
  7  9  1  0  0  0  0
 29 37  2  0  0  0  0
 21 33  1  0  0  0  0
  6 39  2  0  0  0  0
  2 30  1  0  0  0  0
  2  3  1  0  0  0  0
  3 31  1  0  0  0  0
  5 31  1  0  0  0  0
  1 33  1  0  0  0  0
 18 27  1  0  0  0  0
 29 30  1  0  0  0  0
 29 35  1  0  0  0  0
  9 25  1  0  0  0  0
  5 25  1  0  0  0  0
  9 16  1  0  0  0  0
  9 14  1  0  0  0  0
  3 38  2  0  0  0  0
 12 13  1  0  0  0  0
 11 12  1  0  0  0  0
  5  6  1  0  0  0  0
  6 32  1  0  0  0  0
 13 34  1  0  0  0  0
 20 27  1  0  0  0  0
 28 41  1  0  0  0  0
  1 40  2  0  0  0  0
  1 28  1  0  0  0  0
 27 35  1  0  0  0  0
 19 27  1  0  0  0  0
  8 28  1  0  0  0  0
  8 32  1  0  0  0  0
  8 10  1  0  0  0  0
 10 11  1  0  0  0  0
 11 15  1  0  0  0  0
 15 34  1  0  0  0  0
 15 36  2  0  0  0  0
  2 42  1  0  0  0  0
  4 43  1  0  0  0  0
  4 44  1  0  0  0  0
  5 45  1  0  0  0  0
  7 46  1  0  0  0  0
  8 47  1  0  0  0  0
 10 48  1  0  0  0  0
 10 49  1  0  0  0  0
 11 50  1  0  0  0  0
 12 51  1  0  0  0  0
 12 52  1  0  0  0  0
 13 53  1  0  0  0  0
 13 54  1  0  0  0  0
 14 55  1  0  0  0  0
 14 56  1  0  0  0  0
 14 57  1  0  0  0  0
 16 58  1  0  0  0  0
 16 59  1  0  0  0  0
 16 60  1  0  0  0  0
 17 61  1  0  0  0  0
 17 62  1  0  0  0  0
 17 63  1  0  0  0  0
 18 64  1  0  0  0  0
 18 65  1  0  0  0  0
 18 66  1  0  0  0  0
 19 67  1  0  0  0  0
 19 68  1  0  0  0  0
 19 69  1  0  0  0  0
 20 70  1  0  0  0  0
 20 71  1  0  0  0  0
 20 72  1  0  0  0  0
 21 73  1  0  0  0  0
 21 74  1  0  0  0  0
 23 75  1  0  0  0  0
 23 76  1  0  0  0  0
 23 77  1  0  0  0  0
 24 78  1  0  0  0  0
 24 79  1  0  0  0  0
 24 80  1  0  0  0  0
 25 81  1  0  0  0  0
 26 82  1  0  0  0  0
 26 83  1  0  0  0  0
 26 84  1  0  0  0  0
 28 85  1  0  0  0  0
 30 86  1  0  0  0  0
 32 87  1  0  0  0  0
 33 88  1  0  0  0  0
 34 89  1  0  0  0  0
 35 90  1  0  0  0  0
 41 91  1  0  0  0  0
M  END
> <OPENEYE_ISO_SMILES>
CCNC(=O)[C@@H]([C@H](C[C@@H]1CCNC1=O)NC(=O)[C@@H]2[C@@H]3[C@@H](C3(C)C)CN2C(=O)[C@H](C(C)(C)C)NC(=O)NC(C)(C)C)O

> <OPENEYE_INCHI>
InChI=1S/C29H50N6O6/c1-10-30-24(39)20(36)17(13-15-11-12-31-22(15)37)32-23(38)19-18-16(29(18,8)9)14-35(19)25(40)21(27(2,3)4)33-26(41)34-28(5,6)7/h15-21,36H,10-14H2,1-9H3,(H,30,39)(H,31,37)(H,32,38)(H2,33,34,41)/t15-,16-,17-,18-,19-,20+,21+/m0/s1

> <OPENEYE_INCHIKEY>
GKUBEDOOUKCUOW-YTNBPZCUSA-N

> <FORMULA>
C29H50N6O6

$$$$
