LLU
  -OEChem-02242320033D

 22 22  0     1  0  0  0  0  0999 V2000
   -1.0800    1.3480   -0.1780 C   0  0  0  0  0  0  0  0  0  0  0  0
   -2.3750    1.7890   -0.3710 C   0  0  0  0  0  0  0  0  0  0  0  0
   -3.4250    0.8900   -0.3440 C   0  0  0  0  0  0  0  0  0  0  0  0
   -3.1830   -0.4530   -0.1240 C   0  0  0  0  0  0  0  0  0  0  0  0
   -1.8880   -0.9000    0.0700 C   0  0  0  0  0  0  0  0  0  0  0  0
    1.6770    1.2900    1.3860 C   0  0  0  0  0  0  0  0  0  0  0  0
    1.4870    0.5280    0.0730 C   0  0  2  0  0  0  0  0  0  0  0  0
    0.4420   -0.4350    0.2280 O   0  0  0  0  0  0  0  0  0  0  0  0
   -0.8320    0.0010    0.0380 C   0  0  0  0  0  0  0  0  0  0  0  0
   -1.6500   -2.2140    0.2810 F   0  0  0  0  0  0  0  0  0  0  0  0
    2.7690   -0.1770   -0.2890 C   0  0  0  0  0  0  0  0  0  0  0  0
    2.8080   -1.3840   -0.3150 O   0  0  0  0  0  0  0  0  0  0  0  0
    3.8670    0.5370   -0.5840 O   0  0  0  0  0  0  0  0  0  0  0  0
   -0.2610    2.0520   -0.1990 H   0  0  0  0  0  0  0  0  0  0  0  0
   -2.5680    2.8380   -0.5420 H   0  0  0  0  0  0  0  0  0  0  0  0
   -4.4370    1.2370   -0.4950 H   0  0  0  0  0  0  0  0  0  0  0  0
   -4.0040   -1.1540   -0.1030 H   0  0  0  0  0  0  0  0  0  0  0  0
    0.7500    1.7990    1.6480 H   0  0  0  0  0  0  0  0  0  0  0  0
    1.9430    0.5890    2.1780 H   0  0  0  0  0  0  0  0  0  0  0  0
    2.4740    2.0240    1.2680 H   0  0  0  0  0  0  0  0  0  0  0  0
    1.2210    1.2280   -0.7180 H   0  0  0  0  0  0  0  0  0  0  0  0
    4.6650    0.0410   -0.8100 H   0  0  0  0  0  0  0  0  0  0  0  0
  6  7  1  0  0  0  0
  5 10  1  0  0  0  0
  7  8  1  0  0  0  0
  8  9  1  0  0  0  0
  7 11  1  0  0  0  0
  5  9  2  0  0  0  0
  4  5  1  0  0  0  0
  1  9  1  0  0  0  0
  3  4  2  0  0  0  0
  1  2  2  0  0  0  0
 11 12  2  0  0  0  0
 11 13  1  0  0  0  0
  2  3  1  0  0  0  0
  1 14  1  0  0  0  0
  2 15  1  0  0  0  0
  3 16  1  0  0  0  0
  4 17  1  0  0  0  0
  6 18  1  0  0  0  0
  6 19  1  0  0  0  0
  6 20  1  0  0  0  0
  7 21  1  0  0  0  0
 13 22  1  0  0  0  0
M  END
> <OPENEYE_ISO_SMILES>
C[C@@H](C(=O)O)Oc1ccccc1F

> <OPENEYE_INCHI>
InChI=1S/C9H9FO3/c1-6(9(11)12)13-8-5-3-2-4-7(8)10/h2-6H,1H3,(H,11,12)/t6-/m0/s1

> <OPENEYE_INCHIKEY>
MMWXPDDADHYFFS-LURJTMIESA-N

> <FORMULA>
C9H9FO3

$$$$
