@<TRIPOS>MOLECULE
/home/pku/3cl/gett_pdb/7VVT/7VVT_mol2/ligand/7VVT_80X.pdb
 21 22 0 0 0
SMALL
GASTEIGER

@<TRIPOS>ATOM
      1  N1        24.1280   -3.6390    9.6960 N.am  401  80X401     -0.2707
      2  N3        25.4740   -3.1170   14.3200 N.am  401  80X401     -0.1791
      3  C4        24.7010   -5.4660   11.2790 C.2   401  80X401      0.2600
      4  C5        24.8080   -3.0920   12.0100 C.3   401  80X401      0.1164
      5  C6        24.4360   -3.2120   13.4630 C.2   401  80X401      0.2478
      6  C7        25.4650   -2.7490   15.6870 C.ar  401  80X401      0.0742
      7  C8        26.6730   -2.7070   16.3670 C.ar  401  80X401      0.0167
      8  C10       25.5480   -2.0180   18.3700 C.ar  401  80X401      0.0115
      9  C13       23.1520   -2.8860    9.1260 C.2   401  80X401      0.2265
     10  C1        24.0960   -4.0890   11.1000 C.3   401  80X401      0.1627
     11  C11       24.3570   -2.0530   17.6820 C.ar  401  80X401      0.0590
     12  C12       24.2910   -2.4080   16.3480 C.ar  401  80X401      0.0280
     13  C14       21.9950   -2.4600    9.9800 C.3   401  80X401      0.0948
     14  C2        25.3970   -3.9890    9.0280 C.3   401  80X401      0.1172
     15  C3        25.5320   -5.4850    8.9280 C.3   401  80X401      0.1366
     16  C9        26.7030   -2.3490   17.7010 C.ar  401  80X401      0.0022
     17  N2        25.2490   -6.0620   10.2360 N.am  401  80X401     -0.2022
     18  O1        24.6460   -6.0140   12.3880 O.2   401  80X401     -0.2715
     19  O2        23.2730   -3.4030   13.8090 O.2   401  80X401     -0.2729
     20  O3        23.1970   -2.5740    7.9410 O.2   401  80X401     -0.2748
     21 CL1        22.8850   -1.6370   18.5090 Cl    401  80X401     -0.0822
@<TRIPOS>BOND
     1    20     9    2
     2    15    14    1
     3    15    17    1
     4    14     1    1
     5     9     1   am
     6     9    13    1
     7     1    10    1
     8    17     3   am
     9    10     3    1
    10    10     4    1
    11     3    18    2
    12     4     5    1
    13     5    19    2
    14     5     2   am
    15     2     6    1
    16     6    12   ar
    17     6     7   ar
    18    12    11   ar
    19     7    16   ar
    20    11     8   ar
    21    11    21    1
    22    16     8   ar
