YTX
  -OEChem-02242320043D

 23 23  0     0  0  0  0  0  0999 V2000
   -1.5830    0.3690   -0.0560 C   0  0  0  0  0  0  0  0  0  0  0  0
   -0.2810    0.6570   -0.4310 C   0  0  0  0  0  0  0  0  0  0  0  0
    0.6280   -0.3690   -0.6180 C   0  0  0  0  0  0  0  0  0  0  0  0
    4.1960    0.4260    0.0830 O   0  0  0  0  0  0  0  0  0  0  0  0
    2.3970    0.0270    1.3020 O   0  0  0  0  0  0  0  0  0  0  0  0
    2.0440   -0.0540   -1.0260 C   0  0  0  0  0  0  0  0  0  0  0  0
    2.8910    0.1360    0.2050 C   0  0  0  0  0  0  0  0  0  0  0  0
    0.2400   -1.6820   -0.4290 C   0  0  0  0  0  0  0  0  0  0  0  0
   -1.0580   -1.9760   -0.0540 C   0  0  0  0  0  0  0  0  0  0  0  0
   -1.9730   -0.9530    0.1340 C   0  0  0  0  0  0  0  0  0  0  0  0
   -3.2500   -1.2400    0.5030 O   0  0  0  0  0  0  0  0  0  0  0  0
   -2.4760    1.3770    0.1330 O   0  0  0  0  0  0  0  0  0  0  0  0
   -2.0050    2.7090   -0.0790 C   0  0  0  0  0  0  0  0  0  0  0  0
    0.0250    1.6820   -0.5800 H   0  0  0  0  0  0  0  0  0  0  0  0
    4.6990    0.5390    0.9010 H   0  0  0  0  0  0  0  0  0  0  0  0
    2.4420   -0.8770   -1.6190 H   0  0  0  0  0  0  0  0  0  0  0  0
    2.0560    0.8600   -1.6200 H   0  0  0  0  0  0  0  0  0  0  0  0
    0.9530   -2.4800   -0.5750 H   0  0  0  0  0  0  0  0  0  0  0  0
   -1.3580   -3.0030    0.0930 H   0  0  0  0  0  0  0  0  0  0  0  0
   -3.8530   -1.3760   -0.2400 H   0  0  0  0  0  0  0  0  0  0  0  0
   -1.1810    2.9170    0.6030 H   0  0  0  0  0  0  0  0  0  0  0  0
   -1.6600    2.8130   -1.1080 H   0  0  0  0  0  0  0  0  0  0  0  0
   -2.8160    3.4150    0.1050 H   0  0  0  0  0  0  0  0  0  0  0  0
  5  7  2  0  0  0  0
  6  7  1  0  0  0  0
  3  6  1  0  0  0  0
  4  7  1  0  0  0  0
 12 13  1  0  0  0  0
  2  3  2  0  0  0  0
  1  2  1  0  0  0  0
  3  8  1  0  0  0  0
  1 12  1  0  0  0  0
  1 10  2  0  0  0  0
  8  9  2  0  0  0  0
  9 10  1  0  0  0  0
 10 11  1  0  0  0  0
  2 14  1  0  0  0  0
  4 15  1  0  0  0  0
  6 16  1  0  0  0  0
  6 17  1  0  0  0  0
  8 18  1  0  0  0  0
  9 19  1  0  0  0  0
 11 20  1  0  0  0  0
 13 21  1  0  0  0  0
 13 22  1  0  0  0  0
 13 23  1  0  0  0  0
M  END
> <OPENEYE_ISO_SMILES>
COc1cc(ccc1O)CC(=O)O

> <OPENEYE_INCHI>
InChI=1S/C9H10O4/c1-13-8-4-6(5-9(11)12)2-3-7(8)10/h2-4,10H,5H2,1H3,(H,11,12)

> <OPENEYE_INCHIKEY>
QRMZSPFSDQBLIX-UHFFFAOYSA-N

> <FORMULA>
C9H10O4

$$$$
