@<TRIPOS>MOLECULE
/home/pku/3cl/gett_pdb/7T42/7T42_mol2/ligand/7T42_FIK.pdb
 32 34 0 0 0
SMALL
GASTEIGER

@<TRIPOS>ATOM
      1  C02       11.8000   23.9520   26.0100 C.2   501  FIK501      0.4214
      2  C04       12.4620   21.9340   27.2540 C.3   501  FIK501      0.1761
      3  C05       13.5180   21.5680   28.3100 C.3   501  FIK501      0.0312
      4  C06       14.9510   21.9390   27.8930 C.3   501  FIK501      0.0022
      5  C07       15.5350   20.9260   26.9070 C.3   501  FIK501      0.0001
      6  C08       15.8650   22.1000   29.1050 C.3   501  FIK501      0.0001
      7  C09       11.0410   21.3960   27.7100 C.2   501  FIK501      0.2614
      8  C11        9.1250   19.7710   27.4690 C.3   501  FIK501      0.1287
      9  C12        8.1730   19.6820   26.2620 C.3   501  FIK501      0.0335
     10  C13        7.7710   21.0320   25.6560 C.3   501  FIK501      0.0818
     11  C14        6.7700   21.0090   24.4890 C.2   501  FIK501      0.2410
     12  C16        5.9900   22.6740   25.9540 C.3   501  FIK501      0.1156
     13  C17        7.0370   21.8570   26.7130 C.3   501  FIK501      0.0326
     14  C19        9.3450   18.3890   28.1250 C.3   501  FIK501      0.2036
     15  C23       11.3550   26.0060   24.7460 C.3   501  FIK501      0.1707
     16  C24        9.7950   26.1220   24.8200 C.3   501  FIK501      0.0471
     17  C25        9.8610   27.4830   24.0460 C.3   501  FIK501      0.0435
     18  C26        8.7340   28.5210   24.1640 C.3   501  FIK501      0.0952
     19  C28        6.8070   28.1630   22.2380 C.2   501  FIK501      0.2261
     20  C29        5.6010   28.9300   22.9500 C.3   501  FIK501      0.0948
     21  C33        9.4440   27.4480   22.5220 C.3   501  FIK501      0.0952
     22  C34       11.2810   27.5900   24.6890 C.3   501  FIK501      0.0471
     23  N03       12.4270   23.3650   27.0740 N.am  501  FIK501     -0.1611
     24  N10       10.4330   20.3220   27.0820 N.am  501  FIK501     -0.2030
     25  N15        5.7610   21.9630   24.6860 N.am  501  FIK501     -0.2054
     26  N27        8.1150   28.0240   22.8360 N.am  501  FIK501     -0.2794
     27  O01       11.1320   23.3180   25.2110 O.2   501  FIK501     -0.2246
     28  O18        6.8670   20.2780   23.5450 O.2   501  FIK501     -0.2734
     29  O20        8.1200   17.8580   28.6000 O.3   501  FIK501     -0.2185
     30  O21       10.4820   21.9580   28.6410 O.2   501  FIK501     -0.2715
     31  O22       11.9230   25.3130   25.8250 O.3   501  FIK501     -0.4373
     32  O32        6.5400   27.6890   21.1440 O.2   501  FIK501     -0.2749
@<TRIPOS>BOND
     1    32    19    2
     2    19    26   am
     3    19    20    1
     4    21    26    1
     5    21    17    1
     6    26    18    1
     7    28    11    2
     8    17    18    1
     9    17    22    1
    10    17    16    1
    11    11    25   am
    12    11    10    1
    13    25    12    1
    14    22    15    1
    15    15    16    1
    16    15    31    1
    17    27     1    2
    18    10     9    1
    19    10    13    1
    20    31     1    1
    21    12    13    1
    22     1    23   am
    23     9     8    1
    24     5     4    1
    25    23     2    1
    26    24     8    1
    27    24     7   am
    28     2     7    1
    29     2     3    1
    30     8    14    1
    31     7    30    2
    32     4     3    1
    33     4     6    1
    34    14    29    1
