@<TRIPOS>MOLECULE
/home/pku/3cl/gett_pdb/5SPC/5SPC_mol2/ligand/5SPC_QLF.pdb
 44 47 0 0 0
SMALL
GASTEIGER

@<TRIPOS>ATOM
      1  C18      -50.7650  -29.3550    5.6630 C.ar  201  QLF201      0.1219
      2  C16      -48.4450  -29.3560    5.0020 C.ar  201  QLF201     -0.0417
      3  C17      -49.4220  -29.3840    6.0070 C.ar  201  QLF201     -0.0069
      4  C15      -48.8960  -29.2970    3.6880 C.ar  201  QLF201      0.0551
      5  C14      -47.8970  -29.2860    2.5470 C.2   201  QLF201      0.2460
      6  C12      -45.5650  -29.5990    1.7690 C.3   201  QLF201      0.0572
      7  C11      -45.5110  -30.9320    1.0020 C.ar  201  QLF201     -0.0199
      8  C10      -46.4590  -31.9130    0.7150 C.ar  201  QLF201     -0.0563
      9  C20      -51.4490  -29.7000    7.9930 C.3   201  QLF201      0.0107
     10  C02      -43.8140  -30.1300    3.4460 C.2   201  QLF201      0.0472
     11  C03      -44.1500  -29.3410    2.1810 C.3   201  QLF201      0.0252
     12  C04      -43.3890  -29.8450    0.9730 C.3   201  QLF201     -0.0140
     13  C05      -44.2250  -31.0640    0.4940 C.ar  201  QLF201     -0.0003
     14  C06      -43.8710  -32.1700   -0.2710 C.ar  201  QLF201      0.1204
     15  C08      -44.8120  -33.1500   -0.5500 C.ar  201  QLF201     -0.0199
     16  C09      -46.1070  -33.0200   -0.0530 C.ar  201  QLF201     -0.0580
     17  C21      -50.1450  -29.0510    8.3990 C.3   201  QLF201     -0.0333
     18  C22      -48.9920  -29.4310    7.4930 C.3   201  QLF201     -0.0230
     19  C24      -50.2580  -29.2820    3.4050 C.ar  201  QLF201      0.0418
     20  N13      -46.5150  -29.5900    2.8520 N.am  201  QLF201     -0.3038
     21  N19      -51.8610  -29.3920    6.6500 N.pl3 201  QLF201     -0.3288
     22  N23      -51.1270  -29.3130    4.3880 N.ar  201  QLF201     -0.2395
     23  O01      -43.0270  -31.1130    3.4100 O.co2 201  QLF201     -0.5495
     24  O07      -42.5690  -32.2700   -0.7630 O.3   201  QLF201     -0.5065
     25  O25      -48.2470  -29.0760    1.4360 O.2   201  QLF201     -0.2701
     26  O26      -44.3500  -29.8010    4.5380 O.co2 201  QLF201     -0.5495
     27 H161      -47.3830  -29.3670    5.2320 H     201  QLF201      0.0629
     28 H121      -45.8600  -28.8340    1.0680 H     201  QLF201      0.0555
     29 H101      -47.4640  -31.8230    1.1030 H     201  QLF201      0.0621
     30 H201      -51.3530  -30.7740    8.1010 H     201  QLF201      0.0462
     31 H202      -52.2240  -29.3620    8.6660 H     201  QLF201      0.0462
     32 H031      -44.0090  -28.2730    2.2990 H     201  QLF201      0.0385
     33 H041      -42.3970  -30.1780    1.2610 H     201  QLF201      0.0321
     34 H042      -43.3710  -29.0950    0.1980 H     201  QLF201      0.0321
     35 H081      -44.5430  -34.0090   -1.1560 H     201  QLF201      0.0654
     36 H091      -46.8430  -33.7850   -0.2710 H     201  QLF201      0.0619
     37 H212      -49.9070  -29.3590    9.4030 H     201  QLF201      0.0283
     38 H211      -50.2640  -27.9770    8.3470 H     201  QLF201      0.0283
     39 H221      -48.6440  -30.4250    7.7520 H     201  QLF201      0.0315
     40 H222      -48.2160  -28.6950    7.6190 H     201  QLF201      0.0315
     41 H241      -50.6100  -29.2440    2.3850 H     201  QLF201      0.0838
     42 H131      -46.2430  -29.7680    3.7970 H     201  QLF201      0.1496
     43 H191      -52.5540  -30.0580    6.3460 H     201  QLF201      0.1475
     44 H071      -42.5840  -32.6080   -1.6440 H     201  QLF201      0.2921
@<TRIPOS>UNITY_ATOM_ATTR
26 1
charge -1
@<TRIPOS>BOND
     1    44    24    1
     2    35    15    1
     3    24    14    1
     4    15    14   ar
     5    15    16   ar
     6    36    16    1
     7    14    13   ar
     8    16     8   ar
     9    34    12    1
    10    13    12    1
    11    13     7   ar
    12     8     7   ar
    13     8    29    1
    14    12    33    1
    15    12    11    1
    16     7     6    1
    17    28     6    1
    18    25     5    2
    19     6    11    1
    20     6    20    1
    21    11    32    1
    22    11    10    1
    23    41    19    1
    24     5    20   am
    25     5     4    1
    26    20    42    1
    27    19     4   ar
    28    19    22   ar
    29    23    10   ar
    30    10    26   ar
    31     4     2   ar
    32    22     1   ar
    33     2    27    1
    34     2     3   ar
    35     1     3   ar
    36     1    21    1
    37     3    18    1
    38    43    21    1
    39    21     9    1
    40    18    40    1
    41    18    39    1
    42    18    17    1
    43     9    30    1
    44     9    17    1
    45     9    31    1
    46    38    17    1
    47    17    37    1
