VVG
  -OEChem-02242320043D

 23 23  0     0  0  0  0  0  0999 V2000
    0.2470    0.8670    0.6190 N   0  0  0  0  0  0  0  0  0  0  0  0
   -0.9940   -1.2030    0.5700 C   0  0  0  0  0  0  0  0  0  0  0  0
   -2.1570   -1.8950    0.2900 C   0  0  0  0  0  0  0  0  0  0  0  0
   -3.2520   -1.2310   -0.2300 C   0  0  0  0  0  0  0  0  0  0  0  0
   -3.1890    0.1300   -0.4710 C   0  0  0  0  0  0  0  0  0  0  0  0
   -2.0290    0.8300   -0.1920 C   0  0  0  0  0  0  0  0  0  0  0  0
    3.0760   -0.9200   -1.7410 C   0  0  0  0  0  0  0  0  0  0  0  0
    1.7490   -0.2450   -1.3910 C   0  0  0  0  0  0  0  0  0  0  0  0
    1.7200    0.1500    0.3800 S   0  0  0  0  0  0  0  0  0  0  0  0
    2.6610    1.1720    0.6780 O   0  0  0  0  0  0  0  0  0  0  0  0
    1.6610   -1.0400    1.1550 O   0  0  0  0  0  0  0  0  0  0  0  0
   -0.9280    0.1630    0.3360 C   0  0  0  0  0  0  0  0  0  0  0  0
   -1.9670    2.1580   -0.4280 F   0  0  0  0  0  0  0  0  0  0  0  0
    0.1990    1.7740    0.9600 H   0  0  0  0  0  0  0  0  0  0  0  0
   -0.1390   -1.7240    0.9760 H   0  0  0  0  0  0  0  0  0  0  0  0
   -2.2100   -2.9580    0.4770 H   0  0  0  0  0  0  0  0  0  0  0  0
   -4.1580   -1.7750   -0.4480 H   0  0  0  0  0  0  0  0  0  0  0  0
   -4.0460    0.6460   -0.8780 H   0  0  0  0  0  0  0  0  0  0  0  0
    3.9000   -0.2470   -1.5060 H   0  0  0  0  0  0  0  0  0  0  0  0
    3.1810   -1.8380   -1.1630 H   0  0  0  0  0  0  0  0  0  0  0  0
    3.0930   -1.1570   -2.8050 H   0  0  0  0  0  0  0  0  0  0  0  0
    1.6440    0.6730   -1.9690 H   0  0  0  0  0  0  0  0  0  0  0  0
    0.9250   -0.9190   -1.6260 H   0  0  0  0  0  0  0  0  0  0  0  0
  7  8  1  0  0  0  0
  8  9  1  0  0  0  0
  9 10  2  0  0  0  0
  9 11  2  0  0  0  0
  1  9  1  0  0  0  0
  1 12  1  0  0  0  0
  2 12  2  0  0  0  0
  2  3  1  0  0  0  0
  3  4  2  0  0  0  0
  4  5  1  0  0  0  0
  5  6  2  0  0  0  0
  6 13  1  0  0  0  0
  6 12  1  0  0  0  0
  1 14  1  0  0  0  0
  2 15  1  0  0  0  0
  3 16  1  0  0  0  0
  4 17  1  0  0  0  0
  5 18  1  0  0  0  0
  7 19  1  0  0  0  0
  7 20  1  0  0  0  0
  7 21  1  0  0  0  0
  8 22  1  0  0  0  0
  8 23  1  0  0  0  0
M  END
> <OPENEYE_ISO_SMILES>
CCS(=O)(=O)Nc1ccccc1F

> <OPENEYE_INCHI>
InChI=1S/C8H10FNO2S/c1-2-13(11,12)10-8-6-4-3-5-7(8)9/h3-6,10H,2H2,1H3

> <OPENEYE_INCHIKEY>
MRTGYFRQZQCITC-UHFFFAOYSA-N

> <FORMULA>
C8H10FNO2S

$$$$
