@<TRIPOS>MOLECULE
/home/pku/3cl/gett_pdb/7L8H/7L8H_mol2/ligand/7L8H_AG7.pdb
 83 85 0 0 0
SMALL
GASTEIGER

@<TRIPOS>ATOM
      1  C01        7.1190   18.6770   15.1510 C.2   201  AG7201      0.1544
      2  C02        7.2850   18.1950   13.6900 C.3   201  AG7201      0.0191
      3  O03        6.1350   19.2310   15.4990 O.2   201  AG7201     -0.2954
      4  C04        5.9670   18.2640   12.9380 C.3   201  AG7201      0.0462
      5  C05        6.0970   17.6090   11.5640 C.3   201  AG7201     -0.0162
      6  C06        7.2650   18.2230   10.7280 C.ar  201  AG7201     -0.0465
      7  C07        7.0450   19.5140    9.9340 C.ar  201  AG7201     -0.0558
      8  C08        8.1970   20.1090    9.1110 C.ar  201  AG7201     -0.0262
      9  C09        9.5560   19.4040    9.0860 C.ar  201  AG7201      0.1234
     10  C10        9.7780   18.1140    9.8720 C.ar  201  AG7201     -0.0262
     11  C11        8.6260   17.5200   10.6950 C.ar  201  AG7201     -0.0558
     12  N12        3.4640   17.9900   13.4740 N.am  201  AG7201     -0.3119
     13  C13        2.3120   17.2970   14.0540 C.3   201  AG7201      0.0274
     14  C14        1.7440   18.0640   15.2300 C.3   201  AG7201     -0.0231
     15  C15        2.6310   18.0090   16.3950 C.3   201  AG7201      0.0386
     16  C16        1.9070   18.7150   17.6300 C.2   201  AG7201      0.2162
     17  N17        2.1480   17.9360   18.6980 N.am  201  AG7201     -0.3151
     18  O18        1.2760   19.7120   17.6080 O.2   201  AG7201     -0.2755
     19  C19        1.2480   17.2550   12.9500 C.3   201  AG7201     -0.0075
     20  C20        1.5830   16.4610   11.6510 C.3   201  AG7201      0.0498
     21  C21        1.8980   14.9670   11.9230 C.2   201  AG7201      0.3074
     22  O22        2.3600   14.1320   10.8730 O.3   201  AG7201     -0.4649
     23  O23        1.7500   14.5160   13.0040 O.2   201  AG7201     -0.2508
     24  C47        4.8370   17.4640   13.6150 C.2   201  AG7201      0.2171
     25  O48        5.0560   16.4560   14.1990 O.2   201  AG7201     -0.2755
     26  C50        3.7170   14.2660   10.4920 C.3   201  AG7201      0.0896
     27  C53        4.4490   12.9390   10.7670 C.3   201  AG7201     -0.0306
     28  C57        8.2460   18.4380   16.1590 C.3   201  AG7201      0.0841
     29  N58        8.2840   19.5340   17.1160 N.am  201  AG7201     -0.3001
     30  C59        9.3230   20.5690   16.9940 C.2   201  AG7201      0.2663
     31  O60       10.1240   20.5170   16.1270 O.2   201  AG7201     -0.2684
     32  C78        8.0030   17.1000   16.8540 C.3   201  AG7201     -0.0213
     33  C81        6.5750   17.0070   17.3700 C.3   201  AG7201     -0.0606
     34  F1        10.5740   19.9320    8.3540 F     201  AG7201     -0.2055
     35  C82        8.9820   16.9280   18.0280 C.3   201  AG7201     -0.0606
     36  C83        3.0290   16.7080   18.2350 C.3   201  AG7201      0.0123
     37  C84        2.8550   16.5900   16.8790 C.3   201  AG7201     -0.0262
     38  C1         9.3870   21.7320   18.0110 C.ar  201  AG7201      0.1678
     39  C2        10.2160   22.8340   17.9500 C.ar  201  AG7201      0.0125
     40  C3         9.9630   23.6040   19.0470 C.ar  201  AG7201      0.1350
     41  O4         9.0050   23.0020   19.7690 O.2   201  AG7201     -0.3592
     42  N5         8.6490   21.8290   19.1150 N.ar  201  AG7201     -0.0734
     43  C4        10.6440   24.9330   19.4090 C.3   201  AG7201     -0.0037
     44  H2         7.9140   18.7410   13.2570 H     201  AG7201      0.0350
     45  H3         7.5900   17.3070   13.6930 H     201  AG7201      0.0350
     46  H27        5.7650   19.1800   12.9060 H     201  AG7201      0.0401
     47  H28        5.2930   17.7290   11.0940 H     201  AG7201      0.0321
     48  H29        6.2580   16.6910   11.6800 H     201  AG7201      0.0321
     49  H30        6.2180   19.9350    9.9510 H     201  AG7201      0.0621
     50  H31        8.0700   20.8930    8.6300 H     201  AG7201      0.0646
     51  H33       10.6050   17.6910    9.8520 H     201  AG7201      0.0646
     52  H34        8.7540   16.7340   11.1740 H     201  AG7201      0.0621
     53  H49        3.3370   18.7280   13.0360 H     201  AG7201      0.1490
     54  H91        2.5630   16.4450   14.3590 H     201  AG7201      0.0501
     55  H35        0.9140   17.6930   15.4620 H     201  AG7201      0.0290
     56  H36        1.6270   18.9610   14.9790 H     201  AG7201      0.0290
     57  H94        3.4560   18.4030   16.1810 H     201  AG7201      0.0395
     58  H39        1.8670   18.0820   19.5060 H     201  AG7201      0.1487
     59 H191        0.4640   16.8700   13.3240 H     201  AG7201      0.0327
     60  H41        0.8470   16.5120   11.0710 H     201  AG7201      0.0381
     61  H42        2.3310   16.8550   11.2430 H     201  AG7201      0.0381
     62  H51        4.1170   14.9550   10.9890 H     201  AG7201      0.0694
     63  H52        3.7680   14.4700    9.5760 H     201  AG7201      0.0694
     64  H53        4.1260   12.5620   11.5640 H     201  AG7201      0.0262
     65  H54        5.3700   13.1000   10.8480 H     201  AG7201      0.0262
     66  H56        4.2970   12.3440   10.0560 H     201  AG7201      0.0262
     67  H77        9.0780   18.4060   15.7250 H     201  AG7201      0.0580
     68  H61        7.6980   19.5760   17.7540 H     201  AG7201      0.1498
     69  H79        8.1420   16.4170   16.2260 H     201  AG7201      0.0317
     70  H82        6.5020   16.2820   17.9620 H     201  AG7201      0.0233
     71  H84        5.9890   16.8820   16.6480 H     201  AG7201      0.0233
     72  H85        6.3520   17.8010   17.8200 H     201  AG7201      0.0233
     73  H86        8.7130   16.1990   18.5550 H     201  AG7201      0.0233
     74  H87        8.9850   17.7090   18.5500 H     201  AG7201      0.0233
     75  H88        9.8460   16.7720   17.6940 H     201  AG7201      0.0233
     76  H89        3.9330   16.8730   18.4280 H     201  AG7201      0.0462
     77  H90        2.7380   15.9260   18.6640 H     201  AG7201      0.0462
     78  H92        3.6240   16.2270   16.4820 H     201  AG7201      0.0288
     79  H93        2.1040   16.0590   16.6920 H     201  AG7201      0.0288
     80  H8        10.8340   23.0180   17.2810 H     201  AG7201      0.0676
     81  H5        11.1710   24.8150   20.1770 H     201  AG7201      0.0309
     82  H6        11.1880   25.2100   18.6960 H     201  AG7201      0.0309
     83  H7         9.9890   25.5850   19.5750 H     201  AG7201      0.0309
@<TRIPOS>BOND
     1    34     9    1
     2    50     8    1
     3     9     8   ar
     4     9    10   ar
     5     8     7   ar
     6    63    26    1
     7    51    10    1
     8    10    11   ar
     9     7    49    1
    10     7     6   ar
    11    66    27    1
    12    26    27    1
    13    26    22    1
    14    26    62    1
    15    11     6   ar
    16    11    52    1
    17     6     5    1
    18    27    65    1
    19    27    64    1
    20    22    21    1
    21    60    20    1
    22    47     5    1
    23    61    20    1
    24     5    48    1
    25     5     4    1
    26    20    21    1
    27    20    19    1
    28    21    23    2
    29    46     4    1
    30     4    24    1
    31     4     2    1
    32    19    59    1
    33    19    13    1
    34    53    12    1
    35    44     2    1
    36    12    24   am
    37    12    13    1
    38    24    25    2
    39     2    45    1
    40     2     1    1
    41    13    54    1
    42    13    14    1
    43    56    14    1
    44     1     3    2
    45     1    28    1
    46    14    55    1
    47    14    15    1
    48    67    28    1
    49    31    30    2
    50    28    32    1
    51    28    29    1
    52    57    15    1
    53    69    32    1
    54    15    37    1
    55    15    16    1
    56    78    37    1
    57    71    33    1
    58    79    37    1
    59    32    33    1
    60    32    35    1
    61    37    36    1
    62    30    29   am
    63    30    38    1
    64    29    68    1
    65    80    39    1
    66    33    72    1
    67    33    70    1
    68    18    16    2
    69    16    17   am
    70    75    35    1
    71    39    38   ar
    72    39    40   ar
    73    38    42   ar
    74    35    74    1
    75    35    73    1
    76    36    76    1
    77    36    77    1
    78    36    17    1
    79    82    43    1
    80    17    58    1
    81    40    43    1
    82    40    41   ar
    83    42    41   ar
    84    43    83    1
    85    43    81    1
