@<TRIPOS>MOLECULE
/home/pku/3cl/gett_pdb/5RGU/5RGU_mol2/ligand/5RGU_UGD.pdb
 22 24 0 0 0
SMALL
GASTEIGER

@<TRIPOS>ATOM
      1  N1         6.3260    0.6500   17.4880 N.ar  1001  UGD1001    -0.2227
      2  N3        12.6920    4.9560   22.1240 N.am  1001  UGD1001    -0.1652
      3  C4         5.3040    1.3920   17.9150 C.ar  1001  UGD1001     0.1989
      4  C5         6.9190   -0.1020   18.4210 C.ar  1001  UGD1001     0.0984
      5  C6        10.9620   -0.0260   21.9690 C.ar  1001  UGD1001     0.0764
      6  C7        11.9990   -0.9370   22.1370 C.ar  1001  UGD1001     0.0168
      7  C8        13.1920   -0.5270   22.7110 C.ar  1001  UGD1001     0.0044
      8  C10       12.3060    1.6740   23.0030 C.ar  1001  UGD1001     0.1419
      9  C13       13.5610    5.8050   22.7010 C.2   1001  UGD1001     0.2499
     10  O2        13.8220    6.9840   22.4820 O.2   1001  UGD1001    -0.2730
     11  C12       14.1150    4.7220   23.6130 C.3   1001  UGD1001     0.1539
     12  C11       13.3720    3.7530   22.6810 C.3   1001  UGD1001     0.2718
     13  O1        12.4540    2.9590   23.4760 O.3   1001  UGD1001    -0.4582
     14  C9        13.3520    0.7780   23.1480 C.ar  1001  UGD1001     0.0371
     15  C14       11.1130    1.2870   22.4090 C.ar  1001  UGD1001     0.0535
     16  N2         9.7730   -0.4980   21.3660 N.am  1001  UGD1001    -0.1788
     17  C          8.6550    0.1930   21.0550 C.2   1001  UGD1001     0.2501
     18  O          8.6080    1.4160   20.9580 O.2   1001  UGD1001    -0.2726
     19  C1         7.4340   -0.6730   20.8230 C.3   1001  UGD1001     0.1165
     20  C2         6.5200   -0.1350   19.7470 C.ar  1001  UGD1001     0.0254
     21  N          4.8340    1.4690   19.1610 N.ar  1001  UGD1001    -0.2227
     22  C3         5.4610    0.7010   20.0590 C.ar  1001  UGD1001     0.0984
@<TRIPOS>BOND
     1     1     3   ar
     2     1     4   ar
     3     3    21   ar
     4     4    20   ar
     5    21    22   ar
     6    20    22   ar
     7    20    19    1
     8    19    17    1
     9    18    17    2
    10    17    16   am
    11    16     5    1
    12     5     6   ar
    13     5    15   ar
    14     2    12    1
    15     2     9   am
    16     6     7   ar
    17    15     8   ar
    18    10     9    2
    19    12    13    1
    20    12    11    1
    21     9    11    1
    22     7    14   ar
    23     8    14   ar
    24     8    13    1
