@<TRIPOS>MOLECULE
/home/pku/3cl/gett_pdb/7O1W/7O1W_mol2/ligand/7O1W_UYQ.pdb
 34 34 0 0 0
SMALL
GASTEIGER

@<TRIPOS>ATOM
      1  N1        45.1360  -33.4970  -12.9930 N.pl3 601  UYQ601     -0.2902
      2  C7        45.4570  -38.7260   -3.5470 C.cat 601  UYQ601      0.3593
      3  C8        48.7270  -37.8100   -8.3880 C.ar  601  UYQ601     -0.0563
      4  N2        47.2020  -34.4950  -13.1630 N.pl3 601  UYQ601     -0.1576
      5  C9        48.8040  -37.2620   -9.6570 C.ar  601  UYQ601     -0.0527
      6  C1        47.8960  -35.8210  -11.4760 C.2   601  UYQ601      0.0697
      7  C5        47.6430  -37.5440   -7.5580 C.ar  601  UYQ601     -0.0237
      8  C6        47.5180  -38.2050   -6.2730 C.3   601  UYQ601      0.1107
      9  N3        46.9770  -35.0540  -11.9210 N.2   601  UYQ601     -0.1194
     10  C4        46.6420  -36.7060   -8.0400 C.ar  601  UYQ601     -0.0563
     11  C3        46.7180  -36.1600   -9.3080 C.ar  601  UYQ601     -0.0527
     12  C2        47.8050  -36.4220  -10.1390 C.ar  601  UYQ601     -0.0040
     13  N4        46.4510  -38.1170   -5.5770 N.3   601  UYQ601     -0.0622
     14  N         46.4170  -33.1640  -14.8710 N.pl3 601  UYQ601     -0.2902
     15  C         46.2360  -33.7150  -13.6820 C.cat 601  UYQ601      0.3645
     16  N5        46.5430  -38.7230   -4.3430 N.pl3 601  UYQ601     -0.1850
     17  N6        44.3030  -38.2600   -3.9900 N.pl3 601  UYQ601     -0.2905
     18  N7        45.6100  -39.1080   -2.2950 N.pl3 601  UYQ601     -0.2905
     19  H4        44.3760  -32.9180  -13.3360 H     601  UYQ601      0.2546
     20  H5        44.9750  -33.8940  -12.0730 H     601  UYQ601      0.2546
     21  H14       49.5380  -38.4560   -8.0540 H     601  UYQ601      0.0621
     22  H6        48.0600  -34.6540  -13.6830 H     601  UYQ601      0.2921
     23  H15       49.6690  -37.5050  -10.2720 H     601  UYQ601      0.0624
     24  H7        48.8040  -36.1030  -12.0060 H     601  UYQ601      0.0866
     25  H10       48.4130  -38.7600   -5.9970 H     601  UYQ601      0.0580
     26  H9        45.7780  -36.4670   -7.4210 H     601  UYQ601      0.0621
     27  H8        45.9070  -35.5180   -9.6480 H     601  UYQ601      0.0624
     28  H1        47.2630  -33.3070  -15.4140 H     601  UYQ601      0.2546
     29  H11       47.4000  -39.1620   -4.0230 H     601  UYQ601      0.2845
     30  H2        44.1490  -37.9570   -4.9470 H     601  UYQ601      0.2546
     31  H13       46.4900  -39.4680   -1.9400 H     601  UYQ601      0.2546
     32  H12       44.8560  -39.0630   -1.6170 H     601  UYQ601      0.2546
     33  H         45.7200  -32.5690  -15.3070 H     601  UYQ601      0.2546
     34  H3        43.4750  -38.1660   -3.4100 H     601  UYQ601      0.2546
@<TRIPOS>BOND
     1    28    14    1
     2    33    14    1
     3    14    15    2
     4    22     4    1
     5    15     4    1
     6    15     1    1
     7    19     1    1
     8     4     9    1
     9     1    20    1
    10    24     6    1
    11     9     6    2
    12     6    12    1
    13    23     5    1
    14    12     5   ar
    15    12    11   ar
    16     5     3   ar
    17    27    11    1
    18    11    10   ar
    19     3    21    1
    20     3     7   ar
    21    10     7   ar
    22    10    26    1
    23     7     8    1
    24     8    25    1
    25     8    13    1
    26    13    16    1
    27    30    17    1
    28    16    29    1
    29    16     2    1
    30    17     2    2
    31    17    34    1
    32     2    18    1
    33    18    31    1
    34    18    32    1
