@<TRIPOS>MOLECULE
/home/pku/3cl/gett_pdb/8DCZ/8DCZ_mol2/ligand/8DCZ_4WI.pdb
 35 37 0 0 0
SMALL
GASTEIGER

@<TRIPOS>ATOM
      1  C8        22.1070    0.4520   17.8830 C.2   401  4WI401      0.2410
      2  C3        23.0550   -4.0840   16.0710 C.2   401  4WI401      0.1171
      3  C1        24.8920   -1.6220   14.2900 C.2   401  4WI401      0.2597
      4  C13       25.2480    1.2350   13.2880 C.2   401  4WI401      0.2458
      5  C21       26.1460    4.3450   11.9140 C.2   401  4WI401      0.3371
      6  C6        24.3020   -0.4220   18.1330 C.3   401  4WI401      0.0326
      7  C7        24.1900    0.8930   18.8750 C.3   401  4WI401      0.1156
      8  C10       26.9960   -0.0530   12.0690 C.3   401  4WI401      0.0939
      9  C5        23.1270   -0.3840   17.1460 C.3   401  4WI401      0.0821
     10  C9        24.9330   -1.1370   12.8500 C.3   401  4WI401      0.1535
     11  C11       26.9850   -1.4810   11.5650 C.3   401  4WI401      0.0220
     12  C12       25.6980   -2.1420   12.0080 C.3   401  4WI401      0.0289
     13  C18       25.9640   -1.8920   10.5420 C.3   401  4WI401      0.0037
     14  C19       25.1290   -0.8640    9.8100 C.3   401  4WI401      0.0001
     15  C20       26.3470   -3.0550    9.6520 C.3   401  4WI401      0.0001
     16  C16       27.5220    1.4050   15.3490 C.3   401  4WI401      0.0022
     17  C17       25.6220    2.9440   15.8090 C.3   401  4WI401      0.0022
     18  C23       27.7210    3.8320   14.7980 C.3   401  4WI401      0.0022
     19  C4        22.4920   -1.6860   16.6550 C.3   401  4WI401      0.0371
     20  C2        23.5130   -2.6370   16.0290 C.3   401  4WI401      0.1386
     21  C14       26.2410    2.3910   13.3970 C.3   401  4WI401      0.1714
     22  C22       25.5730    5.7670   11.8220 C.3   401  4WI401      0.4711
     23  C15       26.7630    2.6350   14.8290 C.3   401  4WI401      0.0269
     24  N5        23.5510   -5.0200   16.7850 N.2   401  4WI401     -0.1496
     25  N2        22.7550    1.1760   18.8070 N.am  401  4WI401     -0.2054
     26  N3        25.7020    0.0990   12.7430 N.am  401  4WI401     -0.2716
     27  N1        23.7650   -2.2450   14.6570 N.am  401  4WI401     -0.1996
     28  N4        25.6060    3.5740   12.8570 N.am  401  4WI401     -0.1908
     29  O1        20.8780    0.4480   17.6470 O.2   401  4WI401     -0.2734
     30  O2        25.8620   -1.4730   15.0260 O.2   401  4WI401     -0.2715
     31  O3        24.0990    1.3210   13.7250 O.2   401  4WI401     -0.2730
     32  O4        27.1030    4.0320   11.2350 O.2   401  4WI401     -0.2642
     33  F1        25.4220    6.3200   13.0240 F     401  4WI401     -0.1620
     34  F2        24.3680    5.7730   11.2610 F     401  4WI401     -0.1620
     35  F3        26.3480    6.5810   11.1150 F     401  4WI401     -0.1620
@<TRIPOS>BOND
     1    15    13    1
     2    14    13    1
     3    13    11    1
     4    13    12    1
     5    35    22    1
     6    32     5    2
     7    34    22    1
     8    11    12    1
     9    11     8    1
    10    22     5    1
    11    22    33    1
    12     5    28   am
    13    12    10    1
    14     8    26    1
    15    26    10    1
    16    26     4   am
    17    10     3    1
    18    28    21    1
    19     4    21    1
    20     4    31    2
    21    21    23    1
    22     3    27   am
    23     3    30    2
    24    27    20    1
    25    18    23    1
    26    23    16    1
    27    23    17    1
    28    20     2    1
    29    20    19    1
    30     2    24    2
    31    19     9    1
    32     9     1    1
    33     9     6    1
    34    29     1    2
    35     1    25   am
    36     6     7    1
    37    25     7    1
