QQR
  -OEChem-02242320033D

 49 52  0     1  0  0  0  0  0999 V2000
    2.6250   -2.1870    1.0330 C   0  0  0  0  0  0  0  0  0  0  0  0
    3.5270   -1.1080    1.5740 C   0  0  1  0  0  0  0  0  0  0  0  0
    4.9340   -1.2040    0.9480 C   0  0  0  0  0  0  0  0  0  0  0  0
    4.8910   -0.3000   -0.2650 C   0  0  0  0  0  0  0  0  0  0  0  0
    5.7340   -0.2320   -1.3670 C   0  0  0  0  0  0  0  0  0  0  0  0
    5.4910    0.6930   -2.3720 C   0  0  0  0  0  0  0  0  0  0  0  0
    4.4090    1.5460   -2.2740 C   0  0  0  0  0  0  0  0  0  0  0  0
    3.5720    1.4780   -1.1780 C   0  0  0  0  0  0  0  0  0  0  0  0
    3.8100    0.5560   -0.1720 C   0  0  0  0  0  0  0  0  0  0  0  0
    3.0530    0.2860    1.1110 C   0  0  1  0  0  0  0  0  0  0  0  0
    0.8900    1.4030    1.0070 C   0  0  0  0  0  0  0  0  0  0  0  0
   -0.5640    1.3910    0.7500 C   0  0  0  0  0  0  0  0  0  0  0  0
   -1.2030    0.2140    0.3570 C   0  0  0  0  0  0  0  0  0  0  0  0
   -3.2390    1.2950    0.2600 C   0  0  0  0  0  0  0  0  0  0  0  0
   -5.1860    0.0470   -0.2600 C   0  0  0  0  0  0  0  0  0  0  0  0
   -7.1570   -1.3190   -0.6930 C   0  0  0  0  0  0  0  0  0  0  0  0
   -8.2560   -1.3420   -1.7580 C   0  0  0  0  0  0  0  0  0  0  0  0
   -8.6200   -1.4960   -0.2800 C   0  0  0  0  0  0  0  0  0  0  0  0
   -2.6690    2.5020    0.6550 C   0  0  0  0  0  0  0  0  0  0  0  0
   -1.3230    2.5600    0.9040 C   0  0  0  0  0  0  0  0  0  0  0  0
    1.6100    0.2740    0.8560 N   0  0  0  0  0  0  0  0  0  0  0  0
   -2.5000    0.2030    0.1280 N   0  0  0  0  0  0  0  0  0  0  0  0
   -4.6040    1.2330    0.0070 N   0  0  0  0  0  0  0  0  0  0  0  0
   -6.5240   -0.0300   -0.4030 N   0  0  0  0  0  0  0  0  0  0  0  0
    2.8090   -2.6280   -0.0770 O   0  0  0  0  0  0  0  0  0  0  0  0
    6.7970   -1.0720   -1.4620 O   0  0  0  0  0  0  0  0  0  0  0  0
   -4.5050   -0.9530   -0.3730 O   0  0  0  0  0  0  0  0  0  0  0  0
    1.4370    2.4320    1.3540 O   0  0  0  0  0  0  0  0  0  0  0  0
    1.6210   -2.6630    1.7860 O   0  0  0  0  0  0  0  0  0  0  0  0
    3.5790   -1.1580    2.6620 H   0  0  0  0  0  0  0  0  0  0  0  0
    5.6870   -0.8530    1.6550 H   0  0  0  0  0  0  0  0  0  0  0  0
    5.1460   -2.2300    0.6500 H   0  0  0  0  0  0  0  0  0  0  0  0
    6.1470    0.7460   -3.2280 H   0  0  0  0  0  0  0  0  0  0  0  0
    4.2190    2.2680   -3.0550 H   0  0  0  0  0  0  0  0  0  0  0  0
    2.7270    2.1460   -1.1040 H   0  0  0  0  0  0  0  0  0  0  0  0
    3.2990    1.0380    1.8600 H   0  0  0  0  0  0  0  0  0  0  0  0
   -0.6300   -0.6940    0.2400 H   0  0  0  0  0  0  0  0  0  0  0  0
   -6.5050   -2.1890   -0.6230 H   0  0  0  0  0  0  0  0  0  0  0  0
   -8.5070   -0.3980   -2.2430 H   0  0  0  0  0  0  0  0  0  0  0  0
   -8.3260   -2.2270   -2.3900 H   0  0  0  0  0  0  0  0  0  0  0  0
   -8.9300   -2.4840    0.0610 H   0  0  0  0  0  0  0  0  0  0  0  0
   -9.1110   -0.6550    0.2080 H   0  0  0  0  0  0  0  0  0  0  0  0
   -3.2810    3.3860    0.7590 H   0  0  0  0  0  0  0  0  0  0  0  0
   -0.8580    3.4850    1.2110 H   0  0  0  0  0  0  0  0  0  0  0  0
    1.1730   -0.5470    0.5790 H   0  0  0  0  0  0  0  0  0  0  0  0
   -5.1380    2.0420    0.0230 H   0  0  0  0  0  0  0  0  0  0  0  0
   -7.0680    0.7680   -0.3120 H   0  0  0  0  0  0  0  0  0  0  0  0
    6.6020   -1.9060   -1.9110 H   0  0  0  0  0  0  0  0  0  0  0  0
    1.0720   -3.3580    1.3980 H   0  0  0  0  0  0  0  0  0  0  0  0
  1 25  2  0  0  0  0
  2  3  1  0  0  0  0
  3  4  1  0  0  0  0
  4  5  2  0  0  0  0
  5 26  1  0  0  0  0
  5  6  1  0  0  0  0
  6  7  2  0  0  0  0
  7  8  1  0  0  0  0
  8  9  2  0  0  0  0
  9 10  1  0  0  0  0
 10 21  1  0  0  0  0
 11 21  1  0  0  0  0
 12 13  2  0  0  0  0
 13 22  1  0  0  0  0
 14 22  2  0  0  0  0
 15 23  1  0  0  0  0
 16 24  1  0  0  0  0
 16 17  1  0  0  0  0
 17 18  1  0  0  0  0
 15 24  1  0  0  0  0
 15 27  2  0  0  0  0
 14 23  1  0  0  0  0
 14 19  1  0  0  0  0
 19 20  2  0  0  0  0
 11 12  1  0  0  0  0
 11 28  2  0  0  0  0
  1  2  1  0  0  0  0
  1 29  1  0  0  0  0
  2 10  1  0  0  0  0
  4  9  1  0  0  0  0
 12 20  1  0  0  0  0
 16 18  1  0  0  0  0
  2 30  1  0  0  0  0
  3 31  1  0  0  0  0
  3 32  1  0  0  0  0
  6 33  1  0  0  0  0
  7 34  1  0  0  0  0
  8 35  1  0  0  0  0
 10 36  1  0  0  0  0
 13 37  1  0  0  0  0
 16 38  1  0  0  0  0
 17 39  1  0  0  0  0
 17 40  1  0  0  0  0
 18 41  1  0  0  0  0
 18 42  1  0  0  0  0
 19 43  1  0  0  0  0
 20 44  1  0  0  0  0
 21 45  1  0  0  0  0
 23 46  1  0  0  0  0
 24 47  1  0  0  0  0
 26 48  1  0  0  0  0
 29 49  1  0  0  0  0
M  END
> <OPENEYE_ISO_SMILES>
c1cc2c(c(c1)O)C[C@@H]([C@@H]2NC(=O)c3ccc(nc3)NC(=O)NC4CC4)C(=O)O

> <OPENEYE_INCHI>
InChI=1S/C20H20N4O5/c25-15-3-1-2-12-13(15)8-14(19(27)28)17(12)24-18(26)10-4-7-16(21-9-10)23-20(29)22-11-5-6-11/h1-4,7,9,11,14,17,25H,5-6,8H2,(H,24,26)(H,27,28)(H2,21,22,23,29)/t14-,17+/m0/s1

> <OPENEYE_INCHIKEY>
GOCJXWMVGSTUHD-WMLDXEAASA-N

> <FORMULA>
C20H20N4O5

$$$$
