4PN
  -OEChem-02242320013D

 32 33  0     0  0  0  0  0  0999 V2000
   -1.1800   -0.2390   -1.3870 C   0  0  0  0  0  0  0  0  0  0  0  0
   -1.2470    0.2770   -2.8260 C   0  0  0  0  0  0  0  0  0  0  0  0
   -0.0150   -0.2120   -3.5940 C   0  0  0  0  0  0  0  0  0  0  0  0
    1.2450    0.2280   -2.8460 C   0  0  0  0  0  0  0  0  0  0  0  0
    1.1810   -0.2850   -1.4060 C   0  0  0  0  0  0  0  0  0  0  0  0
    0.0160    0.2880   -0.7250 N   0  0  0  0  0  0  0  0  0  0  0  0
    0.0170   -0.2520    0.6400 C   0  0  0  0  0  0  0  0  0  0  0  0
    1.2470    0.2610    1.3950 C   0  0  0  0  0  0  0  0  0  0  0  0
    1.1800   -0.2130    2.8480 C   0  0  0  0  0  0  0  0  0  0  0  0
   -0.0170    0.3330    3.4940 N   0  0  0  0  0  0  0  0  0  0  0  0
   -1.1810   -0.2620    2.8290 C   0  0  0  0  0  0  0  0  0  0  0  0
   -1.2450    0.2090    1.3750 C   0  0  0  0  0  0  0  0  0  0  0  0
   -2.0680    0.0850   -0.8440 H   0  0  0  0  0  0  0  0  0  0  0  0
   -1.1390   -1.3280   -1.3950 H   0  0  0  0  0  0  0  0  0  0  0  0
   -1.2630    1.3670   -2.8200 H   0  0  0  0  0  0  0  0  0  0  0  0
   -2.1500   -0.0980   -3.3060 H   0  0  0  0  0  0  0  0  0  0  0  0
   -0.0370   -1.2990   -3.6640 H   0  0  0  0  0  0  0  0  0  0  0  0
   -0.0150    0.2180   -4.5950 H   0  0  0  0  0  0  0  0  0  0  0  0
    2.1250   -0.1820   -3.3410 H   0  0  0  0  0  0  0  0  0  0  0  0
    1.3040    1.3170   -2.8410 H   0  0  0  0  0  0  0  0  0  0  0  0
    2.0900    0.0030   -0.8770 H   0  0  0  0  0  0  0  0  0  0  0  0
    1.0980   -1.3720   -1.4130 H   0  0  0  0  0  0  0  0  0  0  0  0
    0.0410   -1.3410    0.6010 H   0  0  0  0  0  0  0  0  0  0  0  0
    2.1510   -0.1280    0.9260 H   0  0  0  0  0  0  0  0  0  0  0  0
    1.2620    1.3500    1.3680 H   0  0  0  0  0  0  0  0  0  0  0  0
    1.1400   -1.3020    2.8720 H   0  0  0  0  0  0  0  0  0  0  0  0
    2.0670    0.1270    3.3810 H   0  0  0  0  0  0  0  0  0  0  0  0
   -0.0170   -0.0100    4.4420 H   0  0  0  0  0  0  0  0  0  0  0  0
   -1.0970   -1.3480    2.8540 H   0  0  0  0  0  0  0  0  0  0  0  0
   -2.0900    0.0410    3.3480 H   0  0  0  0  0  0  0  0  0  0  0  0
   -1.3050    1.2970    1.3470 H   0  0  0  0  0  0  0  0  0  0  0  0
   -2.1240   -0.2160    0.8920 H   0  0  0  0  0  0  0  0  0  0  0  0
  1  2  1  0  0  0  0
  1  6  1  0  0  0  0
  1 13  1  0  0  0  0
  1 14  1  0  0  0  0
  2  3  1  0  0  0  0
  2 15  1  0  0  0  0
  2 16  1  0  0  0  0
  3  4  1  0  0  0  0
  3 17  1  0  0  0  0
  3 18  1  0  0  0  0
  4  5  1  0  0  0  0
  4 19  1  0  0  0  0
  4 20  1  0  0  0  0
  5  6  1  0  0  0  0
  5 21  1  0  0  0  0
  5 22  1  0  0  0  0
  6  7  1  0  0  0  0
  7  8  1  0  0  0  0
  7 12  1  0  0  0  0
  7 23  1  0  0  0  0
  8  9  1  0  0  0  0
  8 24  1  0  0  0  0
  8 25  1  0  0  0  0
  9 10  1  0  0  0  0
  9 26  1  0  0  0  0
  9 27  1  0  0  0  0
 10 11  1  0  0  0  0
 10 28  1  0  0  0  0
 11 12  1  0  0  0  0
 11 29  1  0  0  0  0
 11 30  1  0  0  0  0
 12 31  1  0  0  0  0
 12 32  1  0  0  0  0
M  END
> <OPENEYE_ISO_SMILES>
C1CCN(CC1)C2CCNCC2

> <OPENEYE_INCHI>
InChI=1S/C10H20N2/c1-2-8-12(9-3-1)10-4-6-11-7-5-10/h10-11H,1-9H2

> <OPENEYE_INCHIKEY>
QDVBKXJMLILLLB-UHFFFAOYSA-N

> <FORMULA>
C10H20N2

$$$$
