W6J
  -OEChem-02242320043D

 28 29  0     1  0  0  0  0  0999 V2000
    2.3270    1.4640   -0.0300 C   0  0  0  0  0  0  0  0  0  0  0  0
   -1.6020   -1.0900    0.2580 N   0  0  0  0  0  0  0  0  0  0  0  0
   -2.9030   -1.2100    0.4440 C   0  0  0  0  0  0  0  0  0  0  0  0
   -3.7540   -0.1520    0.1940 C   0  0  0  0  0  0  0  0  0  0  0  0
   -3.2290    1.0510   -0.2580 C   0  0  0  0  0  0  0  0  0  0  0  0
   -1.8610    1.1470   -0.4430 C   0  0  0  0  0  0  0  0  0  0  0  0
   -1.0630    0.0400   -0.1720 C   0  0  0  0  0  0  0  0  0  0  0  0
    0.9700   -1.1580   -0.0100 C   0  0  0  0  0  0  0  0  0  0  0  0
    2.2560   -1.2600   -0.7900 C   0  0  0  0  0  0  0  0  0  0  0  0
    3.4610   -0.7110    0.0000 C   0  0  0  0  0  0  0  0  0  0  0  0
    0.8420    1.2330    0.3150 C   0  0  0  0  0  0  0  0  0  0  0  0
    0.3130    0.1220   -0.3530 N   0  0  2  0  0  0  0  0  0  0  0  0
    3.1350    0.5360    0.7290 N   0  0  0  0  0  0  0  0  0  0  0  0
    2.4840    1.2970   -1.0960 H   0  0  0  0  0  0  0  0  0  0  0  0
    2.6060    2.4860    0.2250 H   0  0  0  0  0  0  0  0  0  0  0  0
   -3.3070   -2.1480    0.7960 H   0  0  0  0  0  0  0  0  0  0  0  0
   -4.8180   -0.2590    0.3480 H   0  0  0  0  0  0  0  0  0  0  0  0
   -3.8740    1.8940   -0.4610 H   0  0  0  0  0  0  0  0  0  0  0  0
   -1.4190    2.0680   -0.7940 H   0  0  0  0  0  0  0  0  0  0  0  0
    0.3150   -1.9880   -0.2740 H   0  0  0  0  0  0  0  0  0  0  0  0
    1.1860   -1.1830    1.0580 H   0  0  0  0  0  0  0  0  0  0  0  0
    2.4400   -2.3060   -1.0340 H   0  0  0  0  0  0  0  0  0  0  0  0
    2.1550   -0.6940   -1.7160 H   0  0  0  0  0  0  0  0  0  0  0  0
    3.7850   -1.4640    0.7180 H   0  0  0  0  0  0  0  0  0  0  0  0
    4.2780   -0.5130   -0.6940 H   0  0  0  0  0  0  0  0  0  0  0  0
    0.7480    1.0770    1.3900 H   0  0  0  0  0  0  0  0  0  0  0  0
    0.2710    2.1180    0.0340 H   0  0  0  0  0  0  0  0  0  0  0  0
    2.7100    0.3330    1.6220 H   0  0  0  0  0  0  0  0  0  0  0  0
  8 12  1  0  0  0  0
  8  9  1  0  0  0  0
  7 12  1  0  0  0  0
 11 12  1  0  0  0  0
  9 10  1  0  0  0  0
  6  7  2  0  0  0  0
  5  6  1  0  0  0  0
  2  7  1  0  0  0  0
  1 11  1  0  0  0  0
  4  5  2  0  0  0  0
 10 13  1  0  0  0  0
  2  3  2  0  0  0  0
  3  4  1  0  0  0  0
  1 13  1  0  0  0  0
  1 14  1  0  0  0  0
  1 15  1  0  0  0  0
  3 16  1  0  0  0  0
  4 17  1  0  0  0  0
  5 18  1  0  0  0  0
  6 19  1  0  0  0  0
  8 20  1  0  0  0  0
  8 21  1  0  0  0  0
  9 22  1  0  0  0  0
  9 23  1  0  0  0  0
 10 24  1  0  0  0  0
 10 25  1  0  0  0  0
 11 26  1  0  0  0  0
 11 27  1  0  0  0  0
 13 28  1  0  0  0  0
M  END
> <OPENEYE_ISO_SMILES>
c1ccnc(c1)[N@@]2CCCNCC2

> <OPENEYE_INCHI>
InChI=1S/C10H15N3/c1-2-6-12-10(4-1)13-8-3-5-11-7-9-13/h1-2,4,6,11H,3,5,7-9H2

> <OPENEYE_INCHIKEY>
YIVVBOYHOANILT-UHFFFAOYSA-N

> <FORMULA>
C10H15N3

$$$$
