@<TRIPOS>MOLECULE
/home/pku/3cl/gett_pdb/5S2G/5S2G_mol2/ligand/5S2G_JHJ.pdb
 18 19 0 0 0
SMALL
GASTEIGER

@<TRIPOS>ATOM
      1  C10       -6.8720   14.9830    1.3050 C.2   501  JHJ501      0.3477
      2  N12       -5.5050   15.0550    1.2830 N.am  501  JHJ501     -0.1606
      3  C13       -4.6590   15.0770    0.1630 C.ar  501  JHJ501      0.0781
      4  C15       -2.4760   14.8230   -0.7350 C.ar  501  JHJ501      0.1002
      5  C17       -4.2020   15.2690   -2.1590 C.ar  501  JHJ501      0.1002
      6  C01      -12.6210   15.4840    6.1610 C.3   501  JHJ501      0.2525
      7  C03      -11.1680   15.4540    4.2320 C.ar  501  JHJ501      0.1388
      8  C04      -10.9690   15.8040    2.9010 C.ar  501  JHJ501      0.0382
      9  C05       -9.7200   15.6430    2.3250 C.ar  501  JHJ501      0.0198
     10  C06       -8.6650   15.1170    3.0690 C.ar  501  JHJ501      0.0752
     11  C07       -8.8760   14.7560    4.3970 C.ar  501  JHJ501      0.0198
     12  C08      -10.1200   14.9240    4.9790 C.ar  501  JHJ501      0.0382
     13  C14       -3.3090   14.8420    0.3680 C.ar  501  JHJ501      0.0373
     14  C18       -5.1180   15.3080   -1.1260 C.ar  501  JHJ501      0.0373
     15  N09       -7.3400   14.9750    2.5930 N.am  501  JHJ501     -0.1607
     16  N16       -2.8970   15.0220   -1.9890 N.ar  501  JHJ501     -0.2422
     17  O02      -12.4060   15.7230    4.7650 O.3   501  JHJ501     -0.4714
     18  O11       -7.5850   14.9730    0.3000 O.2   501  JHJ501     -0.2484
@<TRIPOS>BOND
     1     5    16   ar
     2     5    14   ar
     3    16     4   ar
     4    14     3   ar
     5     4    13   ar
     6     3    13   ar
     7     3     2    1
     8    18     1    2
     9     2     1   am
    10     1    15   am
    11     9     8   ar
    12     9    10   ar
    13    15    10    1
    14     8     7   ar
    15    10    11   ar
    16     7    17    1
    17     7    12   ar
    18    11    12   ar
    19    17     6    1
