99W
  -OEChem-02242320013D

 60 61  0     1  0  0  0  0  0999 V2000
   -0.0830    0.0230    0.7130 N   0  0  0  0  0  0  0  0  0  0  0  0
    3.6000   -0.1660    0.8340 N   0  0  0  0  0  0  0  0  0  0  0  0
    0.4910    2.8530    0.1160 C   0  0  0  0  0  0  0  0  0  0  0  0
    0.5880    4.2640    0.7000 C   0  0  0  0  0  0  0  0  0  0  0  0
    0.8700    2.8870   -1.3660 C   0  0  0  0  0  0  0  0  0  0  0  0
   -1.1230    0.3030   -0.0970 C   0  0  0  0  0  0  0  0  0  0  0  0
   -2.5080   -0.1720    0.2630 C   0  0  0  0  0  0  0  0  0  0  0  0
   -5.7740    0.7650   -0.3000 C   0  0  0  0  0  0  0  0  0  0  0  0
   -6.3150   -1.9400   -0.0240 C   0  0  0  0  0  0  0  0  0  0  0  0
    4.5970   -1.0360    1.4640 C   0  0  1  0  0  0  0  0  0  0  0  0
    5.9000   -0.9820    0.6640 C   0  0  0  0  0  0  0  0  0  0  0  0
    6.8530   -0.2250   -2.3190 C   0  0  0  0  0  0  0  0  0  0  0  0
    4.7220   -0.6980   -1.5260 C   0  0  0  0  0  0  0  0  0  0  0  0
    1.9290   -1.3410    1.6990 O   0  0  0  0  0  0  0  0  0  0  0  0
    2.2860   -0.4050    1.0150 C   0  0  0  0  0  0  0  0  0  0  0  0
    1.2610    0.4890    0.3660 C   0  0  2  0  0  0  0  0  0  0  0  0
    1.4480    1.9230    0.8650 C   0  0  0  0  0  0  0  0  0  0  0  0
   -3.4570    0.2580   -0.7720 N   0  0  0  0  0  0  0  0  0  0  0  0
   -4.7580   -0.1680   -0.4680 C   0  0  0  0  0  0  0  0  0  0  0  0
   -5.5110    2.0830   -0.4340 F   0  0  0  0  0  0  0  0  0  0  0  0
   -7.0570    0.3420    0.0000 C   0  0  0  0  0  0  0  0  0  0  0  0
   -7.3270   -1.0090    0.1380 C   0  0  0  0  0  0  0  0  0  0  0  0
   -8.5780   -1.4180    0.4420 F   0  0  0  0  0  0  0  0  0  0  0  0
   -5.0340   -1.5230   -0.3350 C   0  0  0  0  0  0  0  0  0  0  0  0
   -4.0470   -2.4330   -0.4930 F   0  0  0  0  0  0  0  0  0  0  0  0
   -0.9460    0.9360   -1.1150 O   0  0  0  0  0  0  0  0  0  0  0  0
    4.8530   -0.5680    2.8730 C   0  0  0  0  0  0  0  0  0  0  0  0
    4.2290    0.4500    3.3320 N   0  0  0  0  0  0  0  0  0  0  0  0
    5.6680   -1.5740   -0.7280 C   0  0  1  0  0  0  0  0  0  0  0  0
    6.9790   -1.5580   -1.5480 C   0  0  0  0  0  0  0  0  0  0  0  0
    5.4120    0.0400   -2.4120 N   0  0  0  0  0  0  0  0  0  0  0  0
    3.5170   -0.6700   -1.3860 O   0  0  0  0  0  0  0  0  0  0  0  0
   -0.2260   -0.4840    1.5280 H   0  0  0  0  0  0  0  0  0  0  0  0
    3.8860    0.5820    0.2870 H   0  0  0  0  0  0  0  0  0  0  0  0
   -0.5300    2.4850    0.2220 H   0  0  0  0  0  0  0  0  0  0  0  0
    1.6090    4.6310    0.5950 H   0  0  0  0  0  0  0  0  0  0  0  0
   -0.0930    4.9260    0.1660 H   0  0  0  0  0  0  0  0  0  0  0  0
    0.3180    4.2390    1.7560 H   0  0  0  0  0  0  0  0  0  0  0  0
    0.8010    1.8820   -1.7820 H   0  0  0  0  0  0  0  0  0  0  0  0
    0.1890    3.5490   -1.9000 H   0  0  0  0  0  0  0  0  0  0  0  0
    1.8910    3.2550   -1.4720 H   0  0  0  0  0  0  0  0  0  0  0  0
   -2.5130   -1.2600    0.3320 H   0  0  0  0  0  0  0  0  0  0  0  0
   -2.8000    0.2540    1.2230 H   0  0  0  0  0  0  0  0  0  0  0  0
   -6.5270   -2.9930    0.0930 H   0  0  0  0  0  0  0  0  0  0  0  0
    4.2240   -2.0600    1.4830 H   0  0  0  0  0  0  0  0  0  0  0  0
    6.2250    0.0540    0.5690 H   0  0  0  0  0  0  0  0  0  0  0  0
    6.6670   -1.5580    1.1800 H   0  0  0  0  0  0  0  0  0  0  0  0
    7.3490    0.5760   -1.7720 H   0  0  0  0  0  0  0  0  0  0  0  0
    7.2830   -0.3240   -3.3160 H   0  0  0  0  0  0  0  0  0  0  0  0
    1.3880    0.4620   -0.7160 H   0  0  0  0  0  0  0  0  0  0  0  0
    2.4760    2.2400    0.6870 H   0  0  0  0  0  0  0  0  0  0  0  0
    1.2350    1.9670    1.9340 H   0  0  0  0  0  0  0  0  0  0  0  0
   -3.4250    1.2580   -0.9000 H   0  0  0  0  0  0  0  0  0  0  0  0
   -7.8480    1.0660    0.1270 H   0  0  0  0  0  0  0  0  0  0  0  0
    5.5630   -1.0920    3.4960 H   0  0  0  0  0  0  0  0  0  0  0  0
    4.3940    0.7520    4.2390 H   0  0  0  0  0  0  0  0  0  0  0  0
    5.2760   -2.5880   -0.6500 H   0  0  0  0  0  0  0  0  0  0  0  0
    7.0210   -2.4030   -2.2340 H   0  0  0  0  0  0  0  0  0  0  0  0
    7.8500   -1.5470   -0.8910 H   0  0  0  0  0  0  0  0  0  0  0  0
    5.0100    0.6680   -3.0320 H   0  0  0  0  0  0  0  0  0  0  0  0
  3  5  1  0  0  0  0
 27 28  2  0  0  0  0
 10 27  1  0  0  0  0
  3  4  1  0  0  0  0
  3 17  1  0  0  0  0
  2 10  1  0  0  0  0
  2 15  1  0  0  0  0
 16 17  1  0  0  0  0
 10 11  1  0  0  0  0
 11 29  1  0  0  0  0
 15 16  1  0  0  0  0
  1 16  1  0  0  0  0
 13 32  2  0  0  0  0
 14 15  2  0  0  0  0
  6 26  2  0  0  0  0
 13 29  1  0  0  0  0
 13 31  1  0  0  0  0
 29 30  1  0  0  0  0
 24 25  1  0  0  0  0
  1  6  1  0  0  0  0
  6  7  1  0  0  0  0
 12 31  1  0  0  0  0
  9 24  2  0  0  0  0
 19 24  1  0  0  0  0
  9 22  1  0  0  0  0
 12 30  1  0  0  0  0
  7 18  1  0  0  0  0
 18 19  1  0  0  0  0
  8 19  2  0  0  0  0
 22 23  1  0  0  0  0
 21 22  2  0  0  0  0
  8 21  1  0  0  0  0
  8 20  1  0  0  0  0
  1 33  1  0  0  0  0
  2 34  1  0  0  0  0
  3 35  1  0  0  0  0
  4 36  1  0  0  0  0
  4 37  1  0  0  0  0
  4 38  1  0  0  0  0
  5 39  1  0  0  0  0
  5 40  1  0  0  0  0
  5 41  1  0  0  0  0
  7 42  1  0  0  0  0
  7 43  1  0  0  0  0
  9 44  1  0  0  0  0
 10 45  1  0  0  0  0
 11 46  1  0  0  0  0
 11 47  1  0  0  0  0
 12 48  1  0  0  0  0
 12 49  1  0  0  0  0
 16 50  1  0  0  0  0
 17 51  1  0  0  0  0
 17 52  1  0  0  0  0
 18 53  1  0  0  0  0
 21 54  1  0  0  0  0
 27 55  1  0  0  0  0
 28 56  1  0  0  0  0
 29 57  1  0  0  0  0
 30 58  1  0  0  0  0
 30 59  1  0  0  0  0
 31 60  1  0  0  0  0
M  END
> <OPENEYE_ISO_SMILES>
[H]/N=C/[C@H](C[C@@H]1CCNC1=O)NC(=O)[C@H](CC(C)C)NC(=O)CNc2c(cc(cc2F)F)F

> <OPENEYE_INCHI>
InChI=1S/C21H28F3N5O3/c1-11(2)5-17(21(32)28-14(9-25)6-12-3-4-26-20(12)31)29-18(30)10-27-19-15(23)7-13(22)8-16(19)24/h7-9,11-12,14,17,25,27H,3-6,10H2,1-2H3,(H,26,31)(H,28,32)(H,29,30)/b25-9+/t12-,14-,17-/m0/s1

> <OPENEYE_INCHIKEY>
ZQILDLPZFYNMME-QRRXHIFMSA-N

> <FORMULA>
C21H28F3N5O3

$$$$
