AR7
  -OEChem-02242320013D

 29 28  0     1  0  0  0  0  0999 V2000
    2.3320   -1.2690    0.9300 N   0  0  0  0  0  0  0  0  0  0  0  0
    2.2030   -0.4660   -0.2930 C   0  0  2  0  0  0  0  0  0  0  0  0
    3.4280    0.4390   -0.4410 C   0  0  0  0  0  0  0  0  0  0  0  0
    3.5850    1.2250    0.7430 O   0  0  0  0  0  0  0  0  0  0  0  0
    0.9400    0.3940   -0.2070 C   0  0  0  0  0  0  0  0  0  0  0  0
   -0.2930   -0.5110   -0.1850 C   0  0  0  0  0  0  0  0  0  0  0  0
   -1.5550    0.3490   -0.0990 C   0  0  0  0  0  0  0  0  0  0  0  0
   -2.7360   -0.5180   -0.0780 N   0  0  0  0  0  0  0  0  0  0  0  0
   -3.9870    0.0310   -0.0040 C   0  0  0  0  0  0  0  0  0  0  0  0
   -4.1310    1.3540    0.0490 N   0  3  0  0  0  0  0  0  0  0  0  0
   -5.0600   -0.7570    0.0150 N   0  0  0  0  0  0  0  0  0  0  0  0
    4.5930   -0.3640   -0.6380 O   0  0  0  0  0  0  0  0  0  0  0  0
    2.3980   -0.6780    1.7450 H   0  0  0  0  0  0  0  0  0  0  0  0
    1.5670   -1.9210    1.0170 H   0  0  0  0  0  0  0  0  0  0  0  0
    2.1340   -1.1270   -1.1570 H   0  0  0  0  0  0  0  0  0  0  0  0
    3.2910    1.0980   -1.2990 H   0  0  0  0  0  0  0  0  0  0  0  0
    3.7110    0.7030    1.5470 H   0  0  0  0  0  0  0  0  0  0  0  0
    0.9690    0.9920    0.7040 H   0  0  0  0  0  0  0  0  0  0  0  0
    0.8910    1.0540   -1.0730 H   0  0  0  0  0  0  0  0  0  0  0  0
   -0.3210   -1.1090   -1.0960 H   0  0  0  0  0  0  0  0  0  0  0  0
   -0.2430   -1.1710    0.6810 H   0  0  0  0  0  0  0  0  0  0  0  0
   -1.5270    0.9460    0.8120 H   0  0  0  0  0  0  0  0  0  0  0  0
   -1.6050    1.0090   -0.9650 H   0  0  0  0  0  0  0  0  0  0  0  0
   -2.6310   -1.4820   -0.1170 H   0  0  0  0  0  0  0  0  0  0  0  0
   -3.3490    1.9280    0.0350 H   0  0  0  0  0  0  0  0  0  0  0  0
   -4.9550   -1.7200   -0.0230 H   0  0  0  0  0  0  0  0  0  0  0  0
   -5.9470   -0.3670    0.0680 H   0  0  0  0  0  0  0  0  0  0  0  0
    5.4090    0.1450   -0.7390 H   0  0  0  0  0  0  0  0  0  0  0  0
   -5.0170    1.7440    0.1020 H   0  0  0  0  0  0  0  0  0  0  0  0
  1  2  1  0  0  0  0
  1 13  1  0  0  0  0
  1 14  1  0  0  0  0
  2  3  1  0  0  0  0
  2  5  1  0  0  0  0
  2 15  1  0  0  0  0
  3  4  1  0  0  0  0
  3 12  1  0  0  0  0
  3 16  1  0  0  0  0
  4 17  1  0  0  0  0
  5  6  1  0  0  0  0
  5 18  1  0  0  0  0
  5 19  1  0  0  0  0
  6  7  1  0  0  0  0
  6 20  1  0  0  0  0
  6 21  1  0  0  0  0
  7  8  1  0  0  0  0
  7 22  1  0  0  0  0
  7 23  1  0  0  0  0
  8  9  1  0  0  0  0
  8 24  1  0  0  0  0
  9 10  2  0  0  0  0
  9 11  1  0  0  0  0
 10 25  1  0  0  0  0
 11 26  1  0  0  0  0
 11 27  1  0  0  0  0
 12 28  1  0  0  0  0
 10 29  1  0  0  0  0
M  CHG  1  10   1
M  END
> <OPENEYE_ISO_SMILES>
C(C[C@@H](C(O)O)N)CNC(=[NH2+])N

> <OPENEYE_INCHI>
InChI=1S/C6H16N4O2/c7-4(5(11)12)2-1-3-10-6(8)9/h4-5,11-12H,1-3,7H2,(H4,8,9,10)/p+1/t4-/m0/s1

> <OPENEYE_INCHIKEY>
GJQTZIGWTNAHJO-BYPYZUCNSA-O

> <FORMULA>
C6H17N4O2+

$$$$
