S09
  -OEChem-02242320043D

 53 56  0     1  0  0  0  0  0999 V2000
   -2.4380    1.8030   -0.0020 C   0  0  0  0  0  0  0  0  0  0  0  0
   -0.4170    2.7750   -0.8500 C   0  0  0  0  0  0  0  0  0  0  0  0
   -1.7510    2.8910   -0.5300 C   0  0  0  0  0  0  0  0  0  0  0  0
    0.2470    1.5620   -0.6440 C   0  0  0  0  0  0  0  0  0  0  0  0
    1.6770    1.4350   -0.9850 C   0  0  0  0  0  0  0  0  0  0  0  0
    3.7350    0.1380   -1.1240 C   0  0  1  0  0  0  0  0  0  0  0  0
    4.5920    0.4080    0.0940 C   0  0  0  0  0  0  0  0  0  0  0  0
    4.4960    1.3980    1.0570 C   0  0  0  0  0  0  0  0  0  0  0  0
   -4.6180    0.8740    0.1550 C   0  0  0  0  0  0  0  0  0  0  0  0
    3.1080   -2.2820   -0.8780 C   0  0  0  0  0  0  0  0  0  0  0  0
    4.0610   -1.3140   -1.5330 C   0  0  2  0  0  0  0  0  0  0  0  0
    5.4920   -1.4990   -0.9870 C   0  0  0  0  0  0  0  0  0  0  0  0
    5.6010   -0.5330    0.1730 C   0  0  0  0  0  0  0  0  0  0  0  0
    6.5150   -0.4800    1.2190 C   0  0  0  0  0  0  0  0  0  0  0  0
    6.4140    0.5140    2.1800 C   0  0  0  0  0  0  0  0  0  0  0  0
    5.4030    1.4520    2.0970 C   0  0  0  0  0  0  0  0  0  0  0  0
   -6.7280   -0.1690    0.4990 C   0  0  0  0  0  0  0  0  0  0  0  0
   -6.2050   -1.4360    0.7240 C   0  0  0  0  0  0  0  0  0  0  0  0
   -7.0280   -2.5430    0.6610 C   0  0  0  0  0  0  0  0  0  0  0  0
   -8.3720   -2.3920    0.3730 C   0  0  0  0  0  0  0  0  0  0  0  0
   -8.8960   -1.1330    0.1480 C   0  0  0  0  0  0  0  0  0  0  0  0
   -8.0790   -0.0210    0.2100 C   0  0  0  0  0  0  0  0  0  0  0  0
   -1.7790    0.5960    0.2100 C   0  0  0  0  0  0  0  0  0  0  0  0
   -0.4450    0.4730   -0.1080 C   0  0  0  0  0  0  0  0  0  0  0  0
    2.3160    0.2650   -0.7850 N   0  0  0  0  0  0  0  0  0  0  0  0
   -3.7890    1.9230    0.3210 N   0  0  0  0  0  0  0  0  0  0  0  0
   -5.8980    0.9550    0.5680 N   0  0  0  0  0  0  0  0  0  0  0  0
    2.0140   -2.6950   -1.5370 O   0  0  0  0  0  0  0  0  0  0  0  0
    7.5080   -1.4040    1.2990 O   0  0  0  0  0  0  0  0  0  0  0  0
   -4.2110   -0.1450   -0.3680 O   0  0  0  0  0  0  0  0  0  0  0  0
    2.2790    2.3850   -1.4470 O   0  0  0  0  0  0  0  0  0  0  0  0
    3.3290   -2.6840    0.2390 O   0  0  0  0  0  0  0  0  0  0  0  0
    0.1160    3.6200   -1.2600 H   0  0  0  0  0  0  0  0  0  0  0  0
   -2.2640    3.8270   -0.6900 H   0  0  0  0  0  0  0  0  0  0  0  0
    3.9940    0.8250   -1.9300 H   0  0  0  0  0  0  0  0  0  0  0  0
    3.7070    2.1340    0.9940 H   0  0  0  0  0  0  0  0  0  0  0  0
    4.0420   -1.4250   -2.6170 H   0  0  0  0  0  0  0  0  0  0  0  0
    5.6350   -2.5230   -0.6400 H   0  0  0  0  0  0  0  0  0  0  0  0
    6.2250   -1.2550   -1.7550 H   0  0  0  0  0  0  0  0  0  0  0  0
    7.1240    0.5540    2.9930 H   0  0  0  0  0  0  0  0  0  0  0  0
    5.3230    2.2270    2.8450 H   0  0  0  0  0  0  0  0  0  0  0  0
   -5.1550   -1.5540    0.9490 H   0  0  0  0  0  0  0  0  0  0  0  0
   -6.6210   -3.5280    0.8360 H   0  0  0  0  0  0  0  0  0  0  0  0
   -9.0130   -3.2600    0.3240 H   0  0  0  0  0  0  0  0  0  0  0  0
   -9.9460   -1.0180   -0.0770 H   0  0  0  0  0  0  0  0  0  0  0  0
   -8.4890    0.9620    0.0350 H   0  0  0  0  0  0  0  0  0  0  0  0
   -2.3140   -0.2460    0.6240 H   0  0  0  0  0  0  0  0  0  0  0  0
    0.0650   -0.4660    0.0530 H   0  0  0  0  0  0  0  0  0  0  0  0
    1.8350   -0.4930   -0.4170 H   0  0  0  0  0  0  0  0  0  0  0  0
   -4.1320    2.7630    0.6660 H   0  0  0  0  0  0  0  0  0  0  0  0
   -6.2450    1.7930    0.9130 H   0  0  0  0  0  0  0  0  0  0  0  0
    1.4330   -3.3160   -1.0760 H   0  0  0  0  0  0  0  0  0  0  0  0
    8.3190   -1.1500    0.8380 H   0  0  0  0  0  0  0  0  0  0  0  0
 15 16  2  0  0  0  0
  8 16  1  0  0  0  0
 14 15  1  0  0  0  0
  7  8  2  0  0  0  0
 14 29  1  0  0  0  0
 13 14  2  0  0  0  0
  7 13  1  0  0  0  0
  6  7  1  0  0  0  0
 12 13  1  0  0  0  0
  6 11  1  0  0  0  0
  6 25  1  0  0  0  0
 11 12  1  0  0  0  0
 10 11  1  0  0  0  0
  5 31  2  0  0  0  0
  5 25  1  0  0  0  0
  4  5  1  0  0  0  0
 10 32  2  0  0  0  0
 10 28  1  0  0  0  0
  2  4  2  0  0  0  0
  4 24  1  0  0  0  0
  2  3  1  0  0  0  0
 23 24  2  0  0  0  0
  1  3  2  0  0  0  0
  1 23  1  0  0  0  0
  1 26  1  0  0  0  0
  9 30  2  0  0  0  0
  9 26  1  0  0  0  0
  9 27  1  0  0  0  0
 17 27  1  0  0  0  0
 17 18  2  0  0  0  0
 18 19  1  0  0  0  0
 17 22  1  0  0  0  0
 19 20  2  0  0  0  0
 21 22  2  0  0  0  0
 20 21  1  0  0  0  0
  2 33  1  0  0  0  0
  3 34  1  0  0  0  0
  6 35  1  0  0  0  0
  8 36  1  0  0  0  0
 11 37  1  0  0  0  0
 12 38  1  0  0  0  0
 12 39  1  0  0  0  0
 15 40  1  0  0  0  0
 16 41  1  0  0  0  0
 18 42  1  0  0  0  0
 19 43  1  0  0  0  0
 20 44  1  0  0  0  0
 21 45  1  0  0  0  0
 22 46  1  0  0  0  0
 23 47  1  0  0  0  0
 24 48  1  0  0  0  0
 25 49  1  0  0  0  0
 26 50  1  0  0  0  0
 27 51  1  0  0  0  0
 28 52  1  0  0  0  0
 29 53  1  0  0  0  0
M  END
> <OPENEYE_ISO_SMILES>
c1ccc(cc1)NC(=O)Nc2ccc(cc2)C(=O)N[C@H]3c4cccc(c4C[C@H]3C(=O)O)O

> <OPENEYE_INCHI>
InChI=1S/C24H21N3O5/c28-20-8-4-7-17-18(20)13-19(23(30)31)21(17)27-22(29)14-9-11-16(12-10-14)26-24(32)25-15-5-2-1-3-6-15/h1-12,19,21,28H,13H2,(H,27,29)(H,30,31)(H2,25,26,32)/t19-,21+/m1/s1

> <OPENEYE_INCHIKEY>
UCQXDGPOPJQAQB-CTNGQTDRSA-N

> <FORMULA>
C24H21N3O5

$$$$
