S0T
  -OEChem-02242320043D

 53 56  0     1  0  0  0  0  0999 V2000
    3.7130    2.8000   -0.3580 C   0  0  0  0  0  0  0  0  0  0  0  0
    4.6620    1.6880   -0.7220 C   0  0  1  0  0  0  0  0  0  0  0  0
    5.4750    1.2360    0.5100 C   0  0  0  0  0  0  0  0  0  0  0  0
    5.6490   -0.2590    0.3420 C   0  0  0  0  0  0  0  0  0  0  0  0
    6.5390   -1.1360    0.9510 C   0  0  0  0  0  0  0  0  0  0  0  0
    6.5120   -2.4850    0.6340 C   0  0  0  0  0  0  0  0  0  0  0  0
    5.5980   -2.9570   -0.2890 C   0  0  0  0  0  0  0  0  0  0  0  0
    4.7150   -2.0840   -0.8940 C   0  0  0  0  0  0  0  0  0  0  0  0
    4.7380   -0.7350   -0.5800 C   0  0  0  0  0  0  0  0  0  0  0  0
    3.8880    0.4080   -1.1020 C   0  0  1  0  0  0  0  0  0  0  0  0
    1.5520   -0.2810   -1.0060 C   0  0  0  0  0  0  0  0  0  0  0  0
    0.2290   -0.2870   -0.3520 C   0  0  0  0  0  0  0  0  0  0  0  0
   -0.8320   -0.9940   -0.9250 C   0  0  0  0  0  0  0  0  0  0  0  0
   -2.0640   -0.9980   -0.3130 C   0  0  0  0  0  0  0  0  0  0  0  0
   -2.2550   -0.2990    0.8750 C   0  0  0  0  0  0  0  0  0  0  0  0
   -4.6260   -0.3010    0.7450 C   0  0  0  0  0  0  0  0  0  0  0  0
   -6.9910   -0.1100    0.5600 C   0  0  0  0  0  0  0  0  0  0  0  0
   -7.0810   -0.7960   -0.6440 C   0  0  0  0  0  0  0  0  0  0  0  0
   -8.2270   -0.6990   -1.4080 C   0  0  0  0  0  0  0  0  0  0  0  0
   -9.2850    0.0810   -0.9760 C   0  0  0  0  0  0  0  0  0  0  0  0
   -9.1980    0.7650    0.2230 C   0  0  0  0  0  0  0  0  0  0  0  0
   -8.0540    0.6720    0.9920 C   0  0  0  0  0  0  0  0  0  0  0  0
   -1.2010    0.4070    1.4480 C   0  0  0  0  0  0  0  0  0  0  0  0
    0.0360    0.4100    0.8440 C   0  0  0  0  0  0  0  0  0  0  0  0
    2.5740    0.4020   -0.4530 N   0  0  0  0  0  0  0  0  0  0  0  0
   -3.5050   -0.3050    1.4930 N   0  0  0  0  0  0  0  0  0  0  0  0
   -5.8330   -0.2110    1.3390 N   0  0  0  0  0  0  0  0  0  0  0  0
    3.3230    2.9140    0.7800 O   0  0  0  0  0  0  0  0  0  0  0  0
    7.4360   -0.6700    1.8590 O   0  0  0  0  0  0  0  0  0  0  0  0
   -4.5490   -0.3800   -0.4660 O   0  0  0  0  0  0  0  0  0  0  0  0
    1.7200   -0.8910   -2.0440 O   0  0  0  0  0  0  0  0  0  0  0  0
    3.3050    3.6680   -1.2980 O   0  0  0  0  0  0  0  0  0  0  0  0
    5.3240    1.9950   -1.5320 H   0  0  0  0  0  0  0  0  0  0  0  0
    6.4460    1.7300    0.5250 H   0  0  0  0  0  0  0  0  0  0  0  0
    4.9260    1.4540    1.4260 H   0  0  0  0  0  0  0  0  0  0  0  0
    7.2030   -3.1660    1.1080 H   0  0  0  0  0  0  0  0  0  0  0  0
    5.5760   -4.0070   -0.5370 H   0  0  0  0  0  0  0  0  0  0  0  0
    4.0020   -2.4560   -1.6150 H   0  0  0  0  0  0  0  0  0  0  0  0
    3.7760    0.3330   -2.1830 H   0  0  0  0  0  0  0  0  0  0  0  0
   -0.6840   -1.5360   -1.8470 H   0  0  0  0  0  0  0  0  0  0  0  0
   -2.8850   -1.5440   -0.7550 H   0  0  0  0  0  0  0  0  0  0  0  0
   -6.2550   -1.4040   -0.9830 H   0  0  0  0  0  0  0  0  0  0  0  0
   -8.2980   -1.2320   -2.3450 H   0  0  0  0  0  0  0  0  0  0  0  0
  -10.1800    0.1550   -1.5750 H   0  0  0  0  0  0  0  0  0  0  0  0
  -10.0250    1.3730    0.5580 H   0  0  0  0  0  0  0  0  0  0  0  0
   -7.9870    1.2060    1.9280 H   0  0  0  0  0  0  0  0  0  0  0  0
   -1.3530    0.9490    2.3690 H   0  0  0  0  0  0  0  0  0  0  0  0
    0.8540    0.9530    1.2910 H   0  0  0  0  0  0  0  0  0  0  0  0
    2.4400    0.8890    0.3750 H   0  0  0  0  0  0  0  0  0  0  0  0
   -3.5680   -0.3110    2.4610 H   0  0  0  0  0  0  0  0  0  0  0  0
   -5.8980   -0.2150    2.3070 H   0  0  0  0  0  0  0  0  0  0  0  0
    7.1130   -0.6760    2.7700 H   0  0  0  0  0  0  0  0  0  0  0  0
    2.6990    4.3670   -1.0160 H   0  0  0  0  0  0  0  0  0  0  0  0
  5 29  1  0  0  0  0
  5  6  2  0  0  0  0
  6  7  1  0  0  0  0
  4  5  1  0  0  0  0
  7  8  2  0  0  0  0
  3  4  1  0  0  0  0
  4  9  2  0  0  0  0
  2  3  1  0  0  0  0
  8  9  1  0  0  0  0
  9 10  1  0  0  0  0
  2 10  1  0  0  0  0
 10 25  1  0  0  0  0
  1  2  1  0  0  0  0
 11 31  2  0  0  0  0
 11 25  1  0  0  0  0
 11 12  1  0  0  0  0
  1 28  2  0  0  0  0
  1 32  1  0  0  0  0
 12 13  2  0  0  0  0
 12 24  1  0  0  0  0
 13 14  1  0  0  0  0
 23 24  2  0  0  0  0
 14 15  2  0  0  0  0
 15 23  1  0  0  0  0
 15 26  1  0  0  0  0
 16 30  2  0  0  0  0
 16 26  1  0  0  0  0
 16 27  1  0  0  0  0
 17 27  1  0  0  0  0
 17 18  2  0  0  0  0
 18 19  1  0  0  0  0
 17 22  1  0  0  0  0
 19 20  2  0  0  0  0
 21 22  2  0  0  0  0
 20 21  1  0  0  0  0
  2 33  1  0  0  0  0
  3 34  1  0  0  0  0
  3 35  1  0  0  0  0
  6 36  1  0  0  0  0
  7 37  1  0  0  0  0
  8 38  1  0  0  0  0
 10 39  1  0  0  0  0
 13 40  1  0  0  0  0
 14 41  1  0  0  0  0
 18 42  1  0  0  0  0
 19 43  1  0  0  0  0
 20 44  1  0  0  0  0
 21 45  1  0  0  0  0
 22 46  1  0  0  0  0
 23 47  1  0  0  0  0
 24 48  1  0  0  0  0
 25 49  1  0  0  0  0
 26 50  1  0  0  0  0
 27 51  1  0  0  0  0
 29 52  1  0  0  0  0
 32 53  1  0  0  0  0
M  END
> <OPENEYE_ISO_SMILES>
c1ccc(cc1)NC(=O)Nc2ccc(cc2)C(=O)N[C@@H]3c4cccc(c4C[C@@H]3C(=O)O)O

> <OPENEYE_INCHI>
InChI=1S/C24H21N3O5/c28-20-8-4-7-17-18(20)13-19(23(30)31)21(17)27-22(29)14-9-11-16(12-10-14)26-24(32)25-15-5-2-1-3-6-15/h1-12,19,21,28H,13H2,(H,27,29)(H,30,31)(H2,25,26,32)/t19-,21+/m0/s1

> <OPENEYE_INCHIKEY>
UCQXDGPOPJQAQB-PZJWPPBQSA-N

> <FORMULA>
C24H21N3O5

$$$$
