K41
  -OEChem-02242320033D

 23 23  0     0  0  0  0  0  0999 V2000
   -1.1710   -0.9880    0.1680 N   0  0  0  0  0  0  0  0  0  0  0  0
   -2.9620    0.1080    0.0240 N   0  0  0  0  0  0  0  0  0  0  0  0
   -0.7990    0.2590   -0.1270 C   0  0  0  0  0  0  0  0  0  0  0  0
   -4.3860    0.4500    0.0250 C   0  0  0  0  0  0  0  0  0  0  0  0
    0.5130    0.7120   -0.2990 N   0  0  0  0  0  0  0  0  0  0  0  0
    3.2570    1.4420    0.6720 C   0  0  0  0  0  0  0  0  0  0  0  0
    1.3360   -1.3090    0.1020 O   0  0  0  0  0  0  0  0  0  0  0  0
    2.9580    0.3440   -0.3510 C   0  0  0  0  0  0  0  0  0  0  0  0
    3.9310   -0.8200   -0.1480 C   0  0  0  0  0  0  0  0  0  0  0  0
    1.5450   -0.1450   -0.1660 C   0  0  0  0  0  0  0  0  0  0  0  0
   -2.4520   -1.0540    0.2520 N   0  0  0  0  0  0  0  0  0  0  0  0
   -1.8930    0.9850   -0.2270 N   0  0  0  0  0  0  0  0  0  0  0  0
   -4.6860    0.7560    1.0270 H   0  0  0  0  0  0  0  0  0  0  0  0
   -4.5640    1.2680   -0.6730 H   0  0  0  0  0  0  0  0  0  0  0  0
   -4.9690   -0.4200   -0.2790 H   0  0  0  0  0  0  0  0  0  0  0  0
    0.6800    1.6430   -0.5130 H   0  0  0  0  0  0  0  0  0  0  0  0
    4.2790    1.7960    0.5380 H   0  0  0  0  0  0  0  0  0  0  0  0
    2.5640    2.2710    0.5260 H   0  0  0  0  0  0  0  0  0  0  0  0
    3.1390    1.0430    1.6790 H   0  0  0  0  0  0  0  0  0  0  0  0
    3.0760    0.7430   -1.3580 H   0  0  0  0  0  0  0  0  0  0  0  0
    3.8130   -1.2190    0.8600 H   0  0  0  0  0  0  0  0  0  0  0  0
    3.7180   -1.6020   -0.8760 H   0  0  0  0  0  0  0  0  0  0  0  0
    4.9530   -0.4670   -0.2810 H   0  0  0  0  0  0  0  0  0  0  0  0
  6  8  1  0  0  0  0
  8  9  1  0  0  0  0
  8 10  1  0  0  0  0
  7 10  2  0  0  0  0
  5 10  1  0  0  0  0
  3  5  1  0  0  0  0
  3 12  2  0  0  0  0
  2 12  1  0  0  0  0
  1  3  1  0  0  0  0
  2  4  1  0  0  0  0
  2 11  1  0  0  0  0
  1 11  2  0  0  0  0
  4 13  1  0  0  0  0
  4 14  1  0  0  0  0
  4 15  1  0  0  0  0
  5 16  1  0  0  0  0
  6 17  1  0  0  0  0
  6 18  1  0  0  0  0
  6 19  1  0  0  0  0
  8 20  1  0  0  0  0
  9 21  1  0  0  0  0
  9 22  1  0  0  0  0
  9 23  1  0  0  0  0
M  END
> <OPENEYE_ISO_SMILES>
CC(C)C(=O)Nc1nnn(n1)C

> <OPENEYE_INCHI>
InChI=1S/C6H11N5O/c1-4(2)5(12)7-6-8-10-11(3)9-6/h4H,1-3H3,(H,7,9,12)

> <OPENEYE_INCHIKEY>
MJNGPLNGGSOMFS-UHFFFAOYSA-N

> <FORMULA>
C6H11N5O

$$$$
