@<TRIPOS>MOLECULE
/home/pku/3cl/gett_pdb/7TVS/7TVS_mol2/ligand/7TVS_XNJ.pdb
 35 39 0 0 0
SMALL
GASTEIGER

@<TRIPOS>ATOM
      1  CBE       19.6680    5.8020   24.7300 C.3   401  XNJ401      0.0914
      2  CBF       20.5500    6.0360   23.4970 C.3   401  XNJ401      0.1060
      3  NBG       19.7330    6.4280   22.3880 N.3   401  XNJ401     -0.2151
      4  CBH       18.9500    7.5680   22.7680 C.3   401  XNJ401      0.1060
      5  CBI       18.1530    7.2290   24.0350 C.3   401  XNJ401      0.0914
      6  NBD       18.9480    6.8680   25.0250 N.3   401  XNJ401     -0.2664
      7  CBC       18.3090    6.7460   26.1890 C.3   401  XNJ401      0.0992
      8  CAZ       17.0040    5.9020   26.1300 C.ar  401  XNJ401     -0.0061
      9  CBA       15.6370    6.5860   25.9530 C.ar  401  XNJ401     -0.0028
     10  CBB       14.5310    5.8670   25.8980 C.ar  401  XNJ401      0.0043
     11  CAY       17.0540    4.5870   26.2590 C.ar  401  XNJ401     -0.0028
     12  CAX       15.7740    3.7500   26.2000 C.ar  401  XNJ401      0.0043
     13  CAV       14.6110    4.3500   26.0420 C.ar  401  XNJ401      0.0554
     14  CAU       13.3220    3.5220   25.9700 C.2   401  XNJ401      0.2690
     15  OAW       13.3230    2.3660   26.2400 O.2   401  XNJ401     -0.2680
     16  NAT       12.0980    4.1820   25.5380 N.am  401  XNJ401     -0.1754
     17  CAO       10.8710    3.4020   25.4390 C.ar  401  XNJ401      0.0750
     18  CAN       10.5330    2.9440   24.2530 C.ar  401  XNJ401      0.0328
     19  CAP        9.9940    3.1110   26.6520 C.ar  401  XNJ401      0.0164
     20  CAQ        8.8880    2.3940   26.5180 C.ar  401  XNJ401     -0.0016
     21  CAR        8.4950    1.8620   25.1400 C.ar  401  XNJ401     -0.0064
     22  CAS        7.2250    1.0350   24.9590 C.3   401  XNJ401      0.0324
     23  CAM        9.2640    2.1140   24.1010 C.ar  401  XNJ401      0.0699
     24  NAL        8.8730    1.6070   22.8000 N.pl3 401  XNJ401     -0.1888
     25  CAJ        9.7920    1.0520   21.8110 C.ar  401  XNJ401      0.1834
     26  NAK        9.3130    0.5990   20.5420 N.ar  401  XNJ401     -0.2225
     27  SAI       11.3730    0.8230   21.8540 S.2   401  XNJ401     -0.0492
     28  CAH       11.7740    0.1820   20.4700 C.ar  401  XNJ401      0.0573
     29  CAG       10.5510    0.0480   19.6810 C.ar  401  XNJ401      0.0913
     30  CAF       10.3200   -0.5080   18.2720 C.ar  401  XNJ401      0.0374
     31  CAA       11.1930   -1.2260   17.6680 C.ar  401  XNJ401      0.0047
     32  CAB       10.8830   -1.7430   16.3040 C.ar  401  XNJ401      0.0207
     33  CAC        9.7230   -1.4660   15.7350 C.ar  401  XNJ401      0.0989
     34  NAD        8.7110   -0.6430   16.4450 N.ar  401  XNJ401     -0.2423
     35  CAE        8.9820   -0.1930   17.6290 C.ar  401  XNJ401      0.1004
@<TRIPOS>BOND
     1    33    32   ar
     2    33    34   ar
     3    32    31   ar
     4    34    35   ar
     5    35    30   ar
     6    31    30   ar
     7    30    29    1
     8    29    28   ar
     9    29    26   ar
    10    28    27   ar
    11    26    25   ar
    12    25    27   ar
    13    25    24    1
    14     3     4    1
    15     3     2    1
    16     4     5    1
    17    24    23    1
    18     2     1    1
    19     5     6    1
    20    23    18   ar
    21    23    21   ar
    22    18    17   ar
    23     1     6    1
    24    22    21    1
    25     6     7    1
    26    21    20   ar
    27    17    16    1
    28    17    19   ar
    29    16    14   am
    30    10     9   ar
    31    10    13   ar
    32     9     8   ar
    33    14    13    1
    34    14    15    2
    35    13    12   ar
    36     8     7    1
    37     8    11   ar
    38    12    11   ar
    39    20    19   ar
