AF3
  -OEChem-02242320013D

  4  3  0     0  0  0  0  0  0999 V2000
    0.0000   -0.0010    0.0000 Al  0  0  0  0  0  0  0  0  0  0  0  0
    0.0230    0.0000   -1.7090 F   0  0  0  0  0  0  0  0  0  0  0  0
    1.4690    0.0000    0.8750 F   0  0  0  0  0  0  0  0  0  0  0  0
   -1.4920    0.0000    0.8340 F   0  0  0  0  0  0  0  0  0  0  0  0
  1  2  1  0  0  0  0
  1  3  1  0  0  0  0
  1  4  1  0  0  0  0
M  END
> <OPENEYE_ISO_SMILES>
F[Al](F)F

> <OPENEYE_INCHI>
InChI=1S/Al.3FH/h;3*1H/q+3;;;/p-3

> <OPENEYE_INCHIKEY>
KLZUFWVZNOTSEM-UHFFFAOYSA-K

> <FORMULA>
AlF3

$$$$
