@<TRIPOS>MOLECULE
/home/pku/3cl/gett_pdb/7TQ4/7TQ4_mol2/ligand/7TQ4_IRZ.pdb
 33 35 0 0 0
SMALL
GASTEIGER

@<TRIPOS>ATOM
      1  C12        9.5730    4.6330   21.6590 C.2   401  IRZ401      0.2614
      2  C16       14.0240    3.3350   23.7660 C.3   401  IRZ401      0.0001
      3  C15       13.1740    4.4860   23.1710 C.3   401  IRZ401      0.0022
      4  C14       11.7840    3.9650   22.7120 C.3   401  IRZ401      0.0312
      5  C13       11.0370    5.0210   21.8830 C.3   401  IRZ401      0.1761
      6  C01        7.7080    2.4480   19.7140 C.3   401  IRZ401      0.2036
      7  C03        7.7390    3.9500   19.9840 C.3   401  IRZ401      0.1287
      8  C04        7.2580    4.7470   18.7600 C.3   401  IRZ401      0.0335
      9  C05        7.1100    6.2760   19.0830 C.3   401  IRZ401      0.0818
     10  C06        6.6940    6.9450   18.0510 C.2   401  IRZ401      0.2410
     11  C08        5.5000    7.6960   20.1280 C.3   401  IRZ401      0.1156
     12  C09        5.9490    6.5010   20.2670 C.3   401  IRZ401      0.0326
     13  C17       13.9510    5.1840   22.0290 C.3   401  IRZ401      0.0001
     14  C19       10.2910    7.4310   21.9830 C.2   401  IRZ401      0.4215
     15  C21       10.7410    9.6760   22.2600 C.3   401  IRZ401      0.2104
     16  C22       10.2520   10.9780   22.9430 C.3   401  IRZ401      0.0483
     17  C23       11.3700   12.0170   23.1450 C.3   401  IRZ401      0.0261
     18  C24       10.2930   12.2320   22.0710 C.3   401  IRZ401      0.0085
     19  C25       11.7280   13.2590   24.0150 C.ar  401  IRZ401     -0.0215
     20  C26       11.1000   14.4930   23.8060 C.ar  401  IRZ401      0.0071
     21  C27       11.4370   15.5950   24.6000 C.ar  401  IRZ401      0.0574
     22  C29       12.4010   15.4620   25.5980 C.ar  401  IRZ401      0.0114
     23  C30       13.0310   14.2330   25.8010 C.ar  401  IRZ401      0.0005
     24  C31       12.6950   13.1320   25.0100 C.ar  401  IRZ401     -0.0042
     25  N07        5.6040    7.9720   18.5940 N.am  401  IRZ401     -0.2054
     26  N11        9.1190    4.3380   20.2780 N.am  401  IRZ401     -0.2030
     27  N18       11.0550    6.3090   22.5530 N.am  401  IRZ401     -0.1611
     28  O02        6.4450    2.1370   19.1770 O.3   401  IRZ401     -0.2185
     29  O10        7.0730    6.8400   16.9340 O.2   401  IRZ401     -0.2734
     30  O20       10.0190    8.5750   22.7650 O.3   401  IRZ401     -0.4335
     31  O32        9.9240    7.3870   20.8590 O.2   401  IRZ401     -0.2246
     32  O33        8.8110    4.5840   22.5690 O.2   401  IRZ401     -0.2715
     33 CL28       10.6330   17.1740   24.3390 Cl    401  IRZ401     -0.0823
@<TRIPOS>BOND
     1    29    10    2
     2    10    25   am
     3    10     9    1
     4    25    11    1
     5     8     9    1
     6     8     7    1
     7     9    12    1
     8    28     6    1
     9     6     7    1
    10     7    26    1
    11    11    12    1
    12    26     1   am
    13    31    14    2
    14     1     5    1
    15     1    32    2
    16     5    27    1
    17     5     4    1
    18    14    27   am
    19    14    30    1
    20    13     3    1
    21    18    16    1
    22    18    17    1
    23    15    30    1
    24    15    16    1
    25     4     3    1
    26    16    17    1
    27    17    19    1
    28     3     2    1
    29    20    19   ar
    30    20    21   ar
    31    19    24   ar
    32    33    21    1
    33    21    22   ar
    34    24    23   ar
    35    22    23   ar
