4YS
  -OEChem-02242320013D

 18 19  0     0  0  0  0  0  0999 V2000
    1.7620   -1.2960    0.0030 C   0  0  0  0  0  0  0  0  0  0  0  0
    2.7380   -0.3390    0.0020 C   0  0  0  0  0  0  0  0  0  0  0  0
    2.4140    1.0110   -0.0010 C   0  0  0  0  0  0  0  0  0  0  0  0
    1.0980    1.4190   -0.0020 C   0  0  0  0  0  0  0  0  0  0  0  0
    0.0850    0.4610   -0.0010 C   0  0  0  0  0  0  0  0  0  0  0  0
    0.4200   -0.9120   -0.0040 C   0  0  0  0  0  0  0  0  0  0  0  0
   -0.6670   -1.8930   -0.0030 C   0  0  0  0  0  0  0  0  0  0  0  0
   -1.9400   -1.4670    0.0010 C   0  0  0  0  0  0  0  0  0  0  0  0
   -2.2680   -0.1410    0.0030 N   0  0  0  0  0  0  0  0  0  0  0  0
   -1.3350    0.8310   -0.0020 C   0  0  0  0  0  0  0  0  0  0  0  0
   -1.6660    2.0030    0.0010 O   0  0  0  0  0  0  0  0  0  0  0  0
    2.0270   -2.3430    0.0050 H   0  0  0  0  0  0  0  0  0  0  0  0
    3.7760   -0.6380    0.0040 H   0  0  0  0  0  0  0  0  0  0  0  0
    3.2020    1.7490   -0.0010 H   0  0  0  0  0  0  0  0  0  0  0  0
    0.8540    2.4710    0.0010 H   0  0  0  0  0  0  0  0  0  0  0  0
   -0.4470   -2.9500   -0.0060 H   0  0  0  0  0  0  0  0  0  0  0  0
   -2.7340   -2.1990    0.0010 H   0  0  0  0  0  0  0  0  0  0  0  0
   -3.2050    0.1090    0.0050 H   0  0  0  0  0  0  0  0  0  0  0  0
 10 11  2  0  0  0  0
  9 10  1  0  0  0  0
  5 10  1  0  0  0  0
  8  9  1  0  0  0  0
  4  5  2  0  0  0  0
  3  4  1  0  0  0  0
  5  6  1  0  0  0  0
  2  3  2  0  0  0  0
  7  8  2  0  0  0  0
  6  7  1  0  0  0  0
  1  6  2  0  0  0  0
  1  2  1  0  0  0  0
  1 12  1  0  0  0  0
  2 13  1  0  0  0  0
  3 14  1  0  0  0  0
  4 15  1  0  0  0  0
  7 16  1  0  0  0  0
  8 17  1  0  0  0  0
  9 18  1  0  0  0  0
M  END
> <OPENEYE_ISO_SMILES>
c1ccc2c(c1)cc[nH]c2=O

> <OPENEYE_INCHI>
InChI=1S/C9H7NO/c11-9-8-4-2-1-3-7(8)5-6-10-9/h1-6H,(H,10,11)

> <OPENEYE_INCHIKEY>
VDBNYAPERZTOOF-UHFFFAOYSA-N

> <FORMULA>
C9H7NO

$$$$
