F5L
  -OEChem-02242320023D

 84 86  0     1  0  0  0  0  0999 V2000
   -1.0560   -1.6090    0.5840 C   0  0  0  0  0  0  0  0  0  0  0  0
    1.2820   -1.0340    0.2110 C   0  0  1  0  0  0  0  0  0  0  0  0
    1.9690   -2.3990    0.1300 C   0  0  0  0  0  0  0  0  0  0  0  0
    3.3100   -2.3390    0.8630 C   0  0  0  0  0  0  0  0  0  0  0  0
    3.0650   -2.1340    2.3600 C   0  0  0  0  0  0  0  0  0  0  0  0
    4.0690   -3.6500    0.6460 C   0  0  0  0  0  0  0  0  0  0  0  0
    2.0190   -0.0490   -0.6590 C   0  0  0  0  0  0  0  0  0  0  0  0
    3.8600    1.5030   -1.0370 C   0  0  1  0  0  0  0  0  0  0  0  0
    4.7920    2.3050   -0.1270 C   0  0  0  0  0  0  0  0  0  0  0  0
    3.9650    3.0370    0.9320 C   0  0  1  0  0  0  0  0  0  0  0  0
    3.3130    2.0480    1.8720 C   0  0  0  0  0  0  0  0  0  0  0  0
    5.1400    2.9090    3.0180 C   0  0  0  0  0  0  0  0  0  0  0  0
    4.8820    3.8820    1.8460 C   0  0  0  0  0  0  0  0  0  0  0  0
    4.6720    0.8710   -2.1700 C   0  0  2  0  0  0  0  0  0  0  0  0
   -3.3190   -2.1160    1.1480 C   0  0  0  0  0  0  0  0  0  0  0  0
   -4.5430   -2.7780    0.4920 C   0  0  0  0  0  0  0  0  0  0  0  0
   -5.1900   -1.3870    0.4860 C   0  0  0  0  0  0  0  0  0  0  0  0
   -4.8890   -0.5800   -0.7760 C   0  0  0  0  0  0  0  0  0  0  0  0
   -5.3910    0.8560   -0.5860 C   0  0  0  0  0  0  0  0  0  0  0  0
   -7.7400    1.4770   -0.8680 C   0  0  0  0  0  0  0  0  0  0  0  0
   -9.1610    1.5180   -0.3690 C   0  0  0  0  0  0  0  0  0  0  0  0
   -9.8530    2.7730   -0.9050 C   0  0  0  0  0  0  0  0  0  0  0  0
   -9.9090    0.2760   -0.8560 C   0  0  0  0  0  0  0  0  0  0  0  0
   -7.1650    0.0380    1.0240 C   0  0  0  0  0  0  0  0  0  0  0  0
   -6.6750   -1.4040    0.8440 C   0  0  0  0  0  0  0  0  0  0  0  0
   -4.2800   -1.0340    1.6690 C   0  0  0  0  0  0  0  0  0  0  0  0
   -0.1020   -1.1550   -0.2530 N   0  0  0  0  0  0  0  0  0  0  0  0
    3.2070    0.4480   -0.2580 N   0  0  0  0  0  0  0  0  0  0  0  0
    3.9880    2.0000    3.0330 N   0  0  0  0  0  0  0  0  0  0  0  0
   -6.7980    0.8140   -0.1680 N   0  0  0  0  0  0  0  0  0  0  0  0
   -0.7540   -2.0030    1.6930 O   0  0  0  0  0  0  0  0  0  0  0  0
    2.3250    1.3930    1.6150 O   0  0  0  0  0  0  0  0  0  0  0  0
    3.7880    0.2190   -3.0830 O   0  0  0  0  0  0  0  0  0  0  0  0
    1.5440    0.2980   -1.7200 O   0  0  0  0  0  0  0  0  0  0  0  0
   -2.3450   -1.6200    0.1930 O   0  0  0  0  0  0  0  0  0  0  0  0
   -7.4430    2.0400   -1.9010 O   0  0  0  0  0  0  0  0  0  0  0  0
    1.2900   -0.6840    1.2430 H   0  0  0  0  0  0  0  0  0  0  0  0
    1.3340   -3.1530    0.5950 H   0  0  0  0  0  0  0  0  0  0  0  0
    2.1370   -2.6590   -0.9150 H   0  0  0  0  0  0  0  0  0  0  0  0
    3.9000   -1.5090    0.4750 H   0  0  0  0  0  0  0  0  0  0  0  0
    4.0200   -2.0190    2.8720 H   0  0  0  0  0  0  0  0  0  0  0  0
    2.4620   -1.2390    2.5100 H   0  0  0  0  0  0  0  0  0  0  0  0
    2.5380   -2.9990    2.7630 H   0  0  0  0  0  0  0  0  0  0  0  0
    4.2440   -3.7960   -0.4200 H   0  0  0  0  0  0  0  0  0  0  0  0
    5.0250   -3.6070    1.1680 H   0  0  0  0  0  0  0  0  0  0  0  0
    3.4790   -4.4800    1.0350 H   0  0  0  0  0  0  0  0  0  0  0  0
    3.1040    2.1650   -1.4580 H   0  0  0  0  0  0  0  0  0  0  0  0
    5.4930    1.6290    0.3630 H   0  0  0  0  0  0  0  0  0  0  0  0
    5.3440    3.0320   -0.7230 H   0  0  0  0  0  0  0  0  0  0  0  0
    3.2120    3.6670    0.4580 H   0  0  0  0  0  0  0  0  0  0  0  0
    6.0600    2.3490    2.8480 H   0  0  0  0  0  0  0  0  0  0  0  0
    5.2010    3.4570    3.9590 H   0  0  0  0  0  0  0  0  0  0  0  0
    5.8130    4.1360    1.3380 H   0  0  0  0  0  0  0  0  0  0  0  0
    4.3700    4.7800    2.1910 H   0  0  0  0  0  0  0  0  0  0  0  0
    5.2290    1.6480   -2.6940 H   0  0  0  0  0  0  0  0  0  0  0  0
   -2.8690   -2.7170    1.9380 H   0  0  0  0  0  0  0  0  0  0  0  0
   -4.3450   -3.1720   -0.5050 H   0  0  0  0  0  0  0  0  0  0  0  0
   -5.0510   -3.4950    1.1380 H   0  0  0  0  0  0  0  0  0  0  0  0
   -3.8140   -0.5700   -0.9540 H   0  0  0  0  0  0  0  0  0  0  0  0
   -5.3960   -1.0340   -1.6280 H   0  0  0  0  0  0  0  0  0  0  0  0
   -4.7970    1.3520    0.1820 H   0  0  0  0  0  0  0  0  0  0  0  0
   -5.3050    1.4010   -1.5260 H   0  0  0  0  0  0  0  0  0  0  0  0
   -9.1630    1.5400    0.7210 H   0  0  0  0  0  0  0  0  0  0  0  0
   -9.9310    2.7100   -1.9900 H   0  0  0  0  0  0  0  0  0  0  0  0
  -10.8510    2.8500   -0.4740 H   0  0  0  0  0  0  0  0  0  0  0  0
   -9.2710    3.6540   -0.6330 H   0  0  0  0  0  0  0  0  0  0  0  0
   -9.4160   -0.6180   -0.4740 H   0  0  0  0  0  0  0  0  0  0  0  0
  -10.9370    0.3060   -0.4940 H   0  0  0  0  0  0  0  0  0  0  0  0
   -9.9070    0.2540   -1.9450 H   0  0  0  0  0  0  0  0  0  0  0  0
   -8.2480    0.0430    1.1440 H   0  0  0  0  0  0  0  0  0  0  0  0
   -6.6970    0.4750    1.9060 H   0  0  0  0  0  0  0  0  0  0  0  0
   -7.2380   -1.8830    0.0420 H   0  0  0  0  0  0  0  0  0  0  0  0
   -6.8200   -1.9570    1.7720 H   0  0  0  0  0  0  0  0  0  0  0  0
   -4.7150   -1.2670    2.6410 H   0  0  0  0  0  0  0  0  0  0  0  0
   -3.8700   -0.0250    1.6190 H   0  0  0  0  0  0  0  0  0  0  0  0
   -0.3320   -0.9090   -1.1630 H   0  0  0  0  0  0  0  0  0  0  0  0
    3.6280    0.1070    0.5460 H   0  0  0  0  0  0  0  0  0  0  0  0
    3.7450    1.4370    3.7850 H   0  0  0  0  0  0  0  0  0  0  0  0
    3.2600   -0.4850   -2.6840 H   0  0  0  0  0  0  0  0  0  0  0  0
    5.8310   -0.3420   -1.4800 S   0  0  0  0  0  0  0  0  0  0  0  0
    5.1290   -1.4620   -0.9590 O   0  0  0  0  0  0  0  0  0  0  0  0
    6.5700   -0.8920   -2.6910 O   0  0  0  0  0  0  0  0  0  0  0  0
    6.8400    0.3090   -0.7190 O   0  0  0  0  0  0  0  0  0  0  0  0
    7.2340   -1.5620   -2.4750 H   0  0  0  0  0  0  0  0  0  0  0  0
 21 22  1  0  0  0  0
 12 13  1  0  0  0  0
 10 13  1  0  0  0  0
 18 19  1  0  0  0  0
 19 30  1  0  0  0  0
 21 23  1  0  0  0  0
 20 21  1  0  0  0  0
 12 29  1  0  0  0  0
 14 33  1  0  0  0  0
  7 34  2  0  0  0  0
 17 18  1  0  0  0  0
 20 30  1  0  0  0  0
 24 30  1  0  0  0  0
  8 14  1  0  0  0  0
  8  9  1  0  0  0  0
  8 28  1  0  0  0  0
 20 36  2  0  0  0  0
 11 29  1  0  0  0  0
  9 10  1  0  0  0  0
 10 11  1  0  0  0  0
 17 26  1  0  0  0  0
 15 26  1  0  0  0  0
  7 28  1  0  0  0  0
  2  7  1  0  0  0  0
 16 17  1  0  0  0  0
 17 25  1  0  0  0  0
 15 35  1  0  0  0  0
  1 35  1  0  0  0  0
 24 25  1  0  0  0  0
 11 32  2  0  0  0  0
  1 27  1  0  0  0  0
  2 27  1  0  0  0  0
  2  3  1  0  0  0  0
  3  4  1  0  0  0  0
 15 16  1  0  0  0  0
  1 31  2  0  0  0  0
  4  5  1  0  0  0  0
  4  6  1  0  0  0  0
  2 37  1  0  0  0  0
  3 38  1  0  0  0  0
  3 39  1  0  0  0  0
  4 40  1  0  0  0  0
  5 41  1  0  0  0  0
  5 42  1  0  0  0  0
  5 43  1  0  0  0  0
  6 44  1  0  0  0  0
  6 45  1  0  0  0  0
  6 46  1  0  0  0  0
  8 47  1  0  0  0  0
  9 48  1  0  0  0  0
  9 49  1  0  0  0  0
 10 50  1  0  0  0  0
 12 51  1  0  0  0  0
 12 52  1  0  0  0  0
 13 53  1  0  0  0  0
 13 54  1  0  0  0  0
 14 55  1  0  0  0  0
 15 56  1  0  0  0  0
 16 57  1  0  0  0  0
 16 58  1  0  0  0  0
 18 59  1  0  0  0  0
 18 60  1  0  0  0  0
 19 61  1  0  0  0  0
 19 62  1  0  0  0  0
 21 63  1  0  0  0  0
 22 64  1  0  0  0  0
 22 65  1  0  0  0  0
 22 66  1  0  0  0  0
 23 67  1  0  0  0  0
 23 68  1  0  0  0  0
 23 69  1  0  0  0  0
 24 70  1  0  0  0  0
 24 71  1  0  0  0  0
 25 72  1  0  0  0  0
 25 73  1  0  0  0  0
 26 74  1  0  0  0  0
 26 75  1  0  0  0  0
 27 76  1  0  0  0  0
 28 77  1  0  0  0  0
 29 78  1  0  0  0  0
 33 79  1  0  0  0  0
 14 80  1  0  0  0  0
 80 81  2  0  0  0  0
 80 82  1  0  0  0  0
 80 83  2  0  0  0  0
 82 84  1  0  0  0  0
M  END
> <OPENEYE_ISO_SMILES>
CC(C)C[C@@H](C(=O)N[C@@H](C[C@@H]1CCNC1=O)[C@H](O)S(=O)(=O)O)NC(=O)OC2CC3(C2)CCN(CC3)C(=O)C(C)C

> <OPENEYE_INCHI>
InChI=1S/C26H44N4O9S/c1-15(2)11-19(22(32)28-20(24(34)40(36,37)38)12-17-5-8-27-21(17)31)29-25(35)39-18-13-26(14-18)6-9-30(10-7-26)23(33)16(3)4/h15-20,24,34H,5-14H2,1-4H3,(H,27,31)(H,28,32)(H,29,35)(H,36,37,38)/t17-,19-,20-,24+/m0/s1

> <OPENEYE_INCHIKEY>
SQVQHYGKQGMSJR-TYZOXTDXSA-N

> <FORMULA>
C26H44N4O9S

$$$$
