F8C
  -OEChem-02242320023D

 84 86  0     1  0  0  0  0  0999 V2000
   -4.6870    1.8300   -2.2760 C   0  0  1  0  0  0  0  0  0  0  0  0
   -3.9820    0.5460   -2.6530 C   0  0  0  0  0  0  0  0  0  0  0  0
   -6.1040    0.4070   -3.5870 C   0  0  0  0  0  0  0  0  0  0  0  0
   -5.8940    1.8980   -3.2400 C   0  0  0  0  0  0  0  0  0  0  0  0
   -4.4150    1.8920    1.5590 C   0  0  1  0  0  0  0  0  0  0  0  0
    2.4160   -1.4550    0.3160 O   0  0  0  0  0  0  0  0  0  0  0  0
    6.9300    0.7340   -0.5360 N   0  0  0  0  0  0  0  0  0  0  0  0
    7.8920    1.6300   -0.2440 C   0  0  0  0  0  0  0  0  0  0  0  0
    7.5500    2.8780    0.5290 C   0  0  0  0  0  0  0  0  0  0  0  0
    7.5690    2.5710    2.0280 C   0  0  0  0  0  0  0  0  0  0  0  0
    8.5770    3.9690    0.2180 C   0  0  0  0  0  0  0  0  0  0  0  0
    7.2680   -0.5350   -1.1950 C   0  0  0  0  0  0  0  0  0  0  0  0
    6.7440   -1.6920   -0.3370 C   0  0  0  0  0  0  0  0  0  0  0  0
    1.1250   -1.6050   -0.0360 C   0  0  0  0  0  0  0  0  0  0  0  0
   -1.2170   -0.9420    0.0880 C   0  0  1  0  0  0  0  0  0  0  0  0
   -1.8700   -1.9950    0.9860 C   0  0  0  0  0  0  0  0  0  0  0  0
   -1.2210   -3.3560    0.7310 C   0  0  0  0  0  0  0  0  0  0  0  0
   -1.7860   -4.3830    1.7140 C   0  0  0  0  0  0  0  0  0  0  0  0
   -1.5190   -3.8040   -0.7010 C   0  0  0  0  0  0  0  0  0  0  0  0
   -1.9370    0.3720    0.2490 C   0  0  0  0  0  0  0  0  0  0  0  0
   -3.9490    1.7390    0.1090 C   0  0  2  0  0  0  0  0  0  0  0  0
   -5.1620    1.7730   -0.8220 C   0  0  0  0  0  0  0  0  0  0  0  0
    3.3700   -2.3800   -0.2680 C   0  0  0  0  0  0  0  0  0  0  0  0
    4.5840   -2.6640    0.6330 C   0  0  0  0  0  0  0  0  0  0  0  0
    5.2630   -1.4650   -0.0410 C   0  0  0  0  0  0  0  0  0  0  0  0
    4.9910   -0.1370    0.6630 C   0  0  0  0  0  0  0  0  0  0  0  0
    5.5270    1.0070   -0.1970 C   0  0  0  0  0  0  0  0  0  0  0  0
    4.3520   -1.7150   -1.2490 C   0  0  0  0  0  0  0  0  0  0  0  0
    0.1880   -0.7790    0.4710 N   0  0  0  0  0  0  0  0  0  0  0  0
   -3.2490    0.4620   -0.0470 N   0  0  0  0  0  0  0  0  0  0  0  0
   -4.7960   -0.2280   -3.3910 N   0  0  0  0  0  0  0  0  0  0  0  0
    0.8040   -2.4850   -0.8090 O   0  0  0  0  0  0  0  0  0  0  0  0
   -2.8470    0.2580   -2.3370 O   0  0  0  0  0  0  0  0  0  0  0  0
   -5.0970    3.1380    1.7110 O   0  0  0  0  0  0  0  0  0  0  0  0
   -1.3360    1.3490    0.6440 O   0  0  0  0  0  0  0  0  0  0  0  0
    9.0340    1.4340   -0.6020 O   0  0  0  0  0  0  0  0  0  0  0  0
   -4.0290    2.6860   -2.4280 H   0  0  0  0  0  0  0  0  0  0  0  0
   -6.8430   -0.0350   -2.9180 H   0  0  0  0  0  0  0  0  0  0  0  0
   -6.4240    0.3010   -4.6230 H   0  0  0  0  0  0  0  0  0  0  0  0
   -6.7710    2.3100   -2.7400 H   0  0  0  0  0  0  0  0  0  0  0  0
   -5.6490    2.4750   -4.1320 H   0  0  0  0  0  0  0  0  0  0  0  0
   -3.5510    1.8660    2.2230 H   0  0  0  0  0  0  0  0  0  0  0  0
    6.5560    3.2220    0.2420 H   0  0  0  0  0  0  0  0  0  0  0  0
    7.3210    3.4740    2.5870 H   0  0  0  0  0  0  0  0  0  0  0  0
    6.8370    1.7940    2.2490 H   0  0  0  0  0  0  0  0  0  0  0  0
    8.5630    2.2270    2.3150 H   0  0  0  0  0  0  0  0  0  0  0  0
    8.5020    4.2490   -0.8320 H   0  0  0  0  0  0  0  0  0  0  0  0
    8.3800    4.8410    0.8420 H   0  0  0  0  0  0  0  0  0  0  0  0
    9.5790    3.5930    0.4240 H   0  0  0  0  0  0  0  0  0  0  0  0
    6.8030   -0.5710   -2.1800 H   0  0  0  0  0  0  0  0  0  0  0  0
    8.3510   -0.6170   -1.2970 H   0  0  0  0  0  0  0  0  0  0  0  0
    6.8680   -2.6310   -0.8760 H   0  0  0  0  0  0  0  0  0  0  0  0
    7.3010   -1.7330    0.5990 H   0  0  0  0  0  0  0  0  0  0  0  0
   -1.2750   -1.2640   -0.9510 H   0  0  0  0  0  0  0  0  0  0  0  0
   -1.7340   -1.7170    2.0310 H   0  0  0  0  0  0  0  0  0  0  0  0
   -2.9350   -2.0530    0.7610 H   0  0  0  0  0  0  0  0  0  0  0  0
   -0.1420   -3.2760    0.8700 H   0  0  0  0  0  0  0  0  0  0  0  0
   -2.8640   -4.4640    1.5750 H   0  0  0  0  0  0  0  0  0  0  0  0
   -1.3230   -5.3530    1.5330 H   0  0  0  0  0  0  0  0  0  0  0  0
   -1.5740   -4.0640    2.7350 H   0  0  0  0  0  0  0  0  0  0  0  0
   -2.5970   -3.8840   -0.8400 H   0  0  0  0  0  0  0  0  0  0  0  0
   -1.1160   -3.0720   -1.4020 H   0  0  0  0  0  0  0  0  0  0  0  0
   -1.0560   -4.7740   -0.8830 H   0  0  0  0  0  0  0  0  0  0  0  0
   -3.2740    2.5570   -0.1430 H   0  0  0  0  0  0  0  0  0  0  0  0
   -5.7650    2.6540   -0.6020 H   0  0  0  0  0  0  0  0  0  0  0  0
   -5.7620    0.8750   -0.6710 H   0  0  0  0  0  0  0  0  0  0  0  0
    2.8990   -3.2800   -0.6630 H   0  0  0  0  0  0  0  0  0  0  0  0
    4.3850   -2.5140    1.6940 H   0  0  0  0  0  0  0  0  0  0  0  0
    5.0690   -3.6180    0.4240 H   0  0  0  0  0  0  0  0  0  0  0  0
    3.9170   -0.0140    0.8070 H   0  0  0  0  0  0  0  0  0  0  0  0
    5.4910   -0.1290    1.6310 H   0  0  0  0  0  0  0  0  0  0  0  0
    5.4600    1.9430    0.3580 H   0  0  0  0  0  0  0  0  0  0  0  0
    4.9430    1.0810   -1.1130 H   0  0  0  0  0  0  0  0  0  0  0  0
    4.7740   -2.4060   -1.9790 H   0  0  0  0  0  0  0  0  0  0  0  0
    3.9660   -0.8020   -1.7020 H   0  0  0  0  0  0  0  0  0  0  0  0
    0.4440   -0.0760    1.0890 H   0  0  0  0  0  0  0  0  0  0  0  0
   -3.7300   -0.3190   -0.3620 H   0  0  0  0  0  0  0  0  0  0  0  0
   -4.5510   -1.0960   -3.7480 H   0  0  0  0  0  0  0  0  0  0  0  0
   -4.5540    3.9110    1.5030 H   0  0  0  0  0  0  0  0  0  0  0  0
   -5.5400    0.5320    1.9790 S   0  0  0  0  0  0  0  0  0  0  0  0
   -6.6410    0.5000    1.0800 O   0  0  0  0  0  0  0  0  0  0  0  0
   -4.7520   -0.7280    1.6510 O   0  0  0  0  0  0  0  0  0  0  0  0
   -5.7400    0.4650    3.3840 O   0  0  0  0  0  0  0  0  0  0  0  0
   -5.2320   -1.5490    1.8270 H   0  0  0  0  0  0  0  0  0  0  0  0
  9 10  1  0  0  0  0
  3  4  1  0  0  0  0
  1  4  1  0  0  0  0
  3 31  1  0  0  0  0
  5 34  1  0  0  0  0
 26 27  1  0  0  0  0
  7 27  1  0  0  0  0
  9 11  1  0  0  0  0
  8  9  1  0  0  0  0
 20 35  2  0  0  0  0
  5 21  1  0  0  0  0
 21 22  1  0  0  0  0
 21 30  1  0  0  0  0
  2 31  1  0  0  0  0
 25 26  1  0  0  0  0
  7  8  1  0  0  0  0
  7 12  1  0  0  0  0
  8 36  2  0  0  0  0
  1 22  1  0  0  0  0
  1  2  1  0  0  0  0
 25 28  1  0  0  0  0
 23 28  1  0  0  0  0
 20 30  1  0  0  0  0
 15 20  1  0  0  0  0
  2 33  2  0  0  0  0
  6 23  1  0  0  0  0
  6 14  1  0  0  0  0
 12 13  1  0  0  0  0
 24 25  1  0  0  0  0
 13 25  1  0  0  0  0
 23 24  1  0  0  0  0
 15 16  1  0  0  0  0
 16 17  1  0  0  0  0
 14 29  1  0  0  0  0
 14 32  2  0  0  0  0
 15 29  1  0  0  0  0
 17 18  1  0  0  0  0
 17 19  1  0  0  0  0
  1 37  1  0  0  0  0
  3 38  1  0  0  0  0
  3 39  1  0  0  0  0
  4 40  1  0  0  0  0
  4 41  1  0  0  0  0
  5 42  1  0  0  0  0
  9 43  1  0  0  0  0
 10 44  1  0  0  0  0
 10 45  1  0  0  0  0
 10 46  1  0  0  0  0
 11 47  1  0  0  0  0
 11 48  1  0  0  0  0
 11 49  1  0  0  0  0
 12 50  1  0  0  0  0
 12 51  1  0  0  0  0
 13 52  1  0  0  0  0
 13 53  1  0  0  0  0
 15 54  1  0  0  0  0
 16 55  1  0  0  0  0
 16 56  1  0  0  0  0
 17 57  1  0  0  0  0
 18 58  1  0  0  0  0
 18 59  1  0  0  0  0
 18 60  1  0  0  0  0
 19 61  1  0  0  0  0
 19 62  1  0  0  0  0
 19 63  1  0  0  0  0
 21 64  1  0  0  0  0
 22 65  1  0  0  0  0
 22 66  1  0  0  0  0
 23 67  1  0  0  0  0
 24 68  1  0  0  0  0
 24 69  1  0  0  0  0
 26 70  1  0  0  0  0
 26 71  1  0  0  0  0
 27 72  1  0  0  0  0
 27 73  1  0  0  0  0
 28 74  1  0  0  0  0
 28 75  1  0  0  0  0
 29 76  1  0  0  0  0
 30 77  1  0  0  0  0
 31 78  1  0  0  0  0
 34 79  1  0  0  0  0
  5 80  1  0  0  0  0
 80 81  2  0  0  0  0
 80 82  1  0  0  0  0
 80 83  2  0  0  0  0
 82 84  1  0  0  0  0
M  END
> <OPENEYE_ISO_SMILES>
CC(C)C[C@@H](C(=O)N[C@@H](C[C@@H]1CCNC1=O)[C@@H](O)S(=O)(=O)O)NC(=O)OC2CC3(C2)CCN(CC3)C(=O)C(C)C

> <OPENEYE_INCHI>
InChI=1S/C26H44N4O9S/c1-15(2)11-19(22(32)28-20(24(34)40(36,37)38)12-17-5-8-27-21(17)31)29-25(35)39-18-13-26(14-18)6-9-30(10-7-26)23(33)16(3)4/h15-20,24,34H,5-14H2,1-4H3,(H,27,31)(H,28,32)(H,29,35)(H,36,37,38)/t17-,19-,20-,24-/m0/s1

> <OPENEYE_INCHIKEY>
SQVQHYGKQGMSJR-CDSYHYPYSA-N

> <FORMULA>
C26H44N4O9S

$$$$
