@<TRIPOS>MOLECULE
/home/pku/3cl/gett_pdb/5SQ9/5SQ9_mol2/ligand/5SQ9_QMO.pdb
 51 53 0 0 0
SMALL
GASTEIGER

@<TRIPOS>ATOM
      1  C18      -44.0780  -27.8740    0.9400 C.ar  201  QMO201     -0.0003
      2  C17      -43.3140  -28.9500    1.7590 C.3   201  QMO201     -0.0140
      3  C14      -44.0210  -31.1120    2.8490 C.2   201  QMO201      0.0472
      4  C13      -44.1860  -30.1560    1.6320 C.3   201  QMO201      0.0252
      5  C12      -45.5830  -29.6480    1.5620 C.3   201  QMO201      0.0572
      6  C10      -47.6650  -29.1780    2.8720 C.2   201  QMO201      0.2445
      7  C19      -43.6800  -26.6820    0.3440 C.ar  201  QMO201      0.1204
      8  C01      -53.1900  -28.6100   11.6720 C.3   201  QMO201     -0.0468
      9  C02      -53.2440  -29.1460   10.2440 C.3   201  QMO201      0.0189
     10  C04      -51.6690  -29.0580    8.2710 C.2   201  QMO201      0.3041
     11  C06      -49.6970  -29.0240    6.6360 C.ar  201  QMO201      0.0348
     12  C07      -48.3180  -29.1070    6.6100 C.ar  201  QMO201     -0.0397
     13  C08      -47.6550  -29.1470    5.3980 C.ar  201  QMO201     -0.0479
     14  C09      -48.3860  -29.1060    4.2190 C.ar  201  QMO201      0.0368
     15  C21      -44.6040  -25.9110   -0.3510 C.ar  201  QMO201     -0.0199
     16  C22      -45.9340  -26.3310   -0.4620 C.ar  201  QMO201     -0.0580
     17  C23      -46.3420  -27.5240    0.1230 C.ar  201  QMO201     -0.0563
     18  C24      -45.4250  -28.2900    0.8280 C.ar  201  QMO201     -0.0199
     19  C26      -49.7740  -29.0540    4.2570 C.ar  201  QMO201     -0.0479
     20  C27      -50.4480  -29.0180    5.4690 C.ar  201  QMO201     -0.0397
     21  C29      -53.7030  -30.6030   10.1980 C.3   201  QMO201     -0.0468
     22  N03      -51.9120  -29.1120    9.6890 N.am  201  QMO201     -0.2968
     23  N05      -50.2650  -29.0340    7.9570 N.am  201  QMO201     -0.2695
     24  N11      -46.2550  -29.5250    2.8520 N.am  201  QMO201     -0.3039
     25  O15      -43.4490  -30.7080    3.8970 O.co2 201  QMO201     -0.5495
     26  O16      -44.4660  -32.2860    2.7880 O.co2 201  QMO201     -0.5495
     27  O20      -42.3610  -26.2320    0.4450 O.3   201  QMO201     -0.5065
     28  O25      -48.2470  -29.0000    1.8580 O.2   201  QMO201     -0.2702
     29  O28      -52.5320  -29.0100    7.4620 O.2   201  QMO201     -0.2525
     30 H172      -42.3260  -29.1220    1.3150 H     201  QMO201      0.0321
     31 H171      -43.2410  -28.6410    2.7980 H     201  QMO201      0.0321
     32 H131      -43.9620  -30.6630    0.6940 H     201  QMO201      0.0385
     33 H121      -46.1680  -30.3230    0.9330 H     201  QMO201      0.0555
     34 H011      -52.8860  -27.5690   11.6600 H     201  QMO201      0.0247
     35 H012      -52.4720  -29.1900   12.2480 H     201  QMO201      0.0247
     36 H013      -54.1710  -28.6990   12.1250 H     201  QMO201      0.0247
     37 H021      -53.9050  -28.5330    9.6430 H     201  QMO201      0.0493
     38 H071      -47.7690  -29.1300    7.5550 H     201  QMO201      0.0636
     39 H081      -46.5720  -29.2000    5.3790 H     201  QMO201      0.0626
     40 H211      -44.2900  -24.9870   -0.8120 H     201  QMO201      0.0654
     41 H221      -46.6380  -25.7250   -1.0060 H     201  QMO201      0.0619
     42 H231      -47.3710  -27.8450    0.0390 H     201  QMO201      0.0621
     43 H261      -50.3320  -29.0390    3.3330 H     201  QMO201      0.0626
     44 H271      -51.5390  -28.9690    5.4930 H     201  QMO201      0.0636
     45 H293      -53.0190  -31.2160   10.7810 H     201  QMO201      0.0247
     46 H291      -53.7070  -30.9520    9.1670 H     201  QMO201      0.0247
     47 H292      -54.7010  -30.6800   10.6120 H     201  QMO201      0.0247
     48 H031      -51.1200  -29.1610   10.2950 H     201  QMO201      0.1505
     49 H051      -49.6370  -29.1030    8.7270 H     201  QMO201      0.1564
     50 H111      -45.7990  -29.6960    3.7340 H     201  QMO201      0.1496
     51 H201      -42.3330  -25.5020    1.0480 H     201  QMO201      0.2921
@<TRIPOS>UNITY_ATOM_ATTR
25 1
charge -1
@<TRIPOS>BOND
     1    41    16    1
     2    40    15    1
     3    16    15   ar
     4    16    17   ar
     5    15     7   ar
     6    42    17    1
     7    17    18   ar
     8     7    27    1
     9     7     1   ar
    10    27    51    1
    11    32     4    1
    12    18     1   ar
    13    18     5    1
    14    33     5    1
    15     1     2    1
    16    30     2    1
    17     5     4    1
    18     5    24    1
    19     4     2    1
    20     4     3    1
    21     2    31    1
    22    28     6    2
    23    26     3   ar
    24     3    25   ar
    25    24     6   am
    26    24    50    1
    27     6    14    1
    28    43    19    1
    29    14    19   ar
    30    14    13   ar
    31    19    20   ar
    32    39    13    1
    33    13    12   ar
    34    20    44    1
    35    20    11   ar
    36    12    11   ar
    37    12    38    1
    38    11    23    1
    39    29    10    2
    40    23    10   am
    41    23    49    1
    42    10    22   am
    43    46    21    1
    44    37     9    1
    45    22     9    1
    46    22    48    1
    47    21     9    1
    48    21    47    1
    49    21    45    1
    50     9     8    1
    51    34     8    1
    52     8    36    1
    53     8    35    1
