QUC
  -OEChem-02242320033D

 39 41  0     1  0  0  0  0  0999 V2000
   -2.5130   -0.6310   -0.1490 C   0  0  0  0  0  0  0  0  0  0  0  0
   -2.8610    1.5560    0.8320 C   0  0  0  0  0  0  0  0  0  0  0  0
   -2.0910    0.6880    0.0360 C   0  0  0  0  0  0  0  0  0  0  0  0
   -1.0780    2.7020    0.0820 C   0  0  0  0  0  0  0  0  0  0  0  0
   -0.9440    1.4690   -0.4310 C   0  0  0  0  0  0  0  0  0  0  0  0
   -3.6870   -1.0290    0.4620 C   0  0  0  0  0  0  0  0  0  0  0  0
    2.3280    1.6100    0.4410 C   0  0  0  0  0  0  0  0  0  0  0  0
    2.1380    0.0920    0.4210 C   0  0  2  0  0  0  0  0  0  0  0  0
    3.4770   -0.5890    0.1230 C   0  0  1  0  0  0  0  0  0  0  0  0
    4.4350   -0.3360    1.2590 C   0  0  0  0  0  0  0  0  0  0  0  0
    3.2560   -2.0950   -0.0320 C   0  0  0  0  0  0  0  0  0  0  0  0
    2.3100   -2.3550   -1.2070 C   0  0  0  0  0  0  0  0  0  0  0  0
    0.9570   -1.6940   -0.9240 C   0  0  0  0  0  0  0  0  0  0  0  0
   -4.3990   -0.1170    1.2290 C   0  0  0  0  0  0  0  0  0  0  0  0
    1.1780   -0.2710   -0.6300 N   0  0  3  0  0  0  0  0  0  0  0  0
   -2.2160    2.7700    0.8410 N   0  0  0  0  0  0  0  0  0  0  0  0
   -3.9820    1.1210    1.3900 N   0  0  0  0  0  0  0  0  0  0  0  0
    4.0830    0.3220    2.2100 O   0  0  0  0  0  0  0  0  0  0  0  0
    5.6780   -0.8400    1.2150 O   0  0  0  0  0  0  0  0  0  0  0  0
   -0.2560    0.2490   -2.5700 O   0  0  0  0  0  0  0  0  0  0  0  0
    1.2620    1.9900   -1.6150 O   0  0  0  0  0  0  0  0  0  0  0  0
    0.3620    0.9000   -1.4680 S   0  0  0  0  0  0  0  0  0  0  0  0
   -4.2670   -2.6540    0.2720 Cl  0  0  0  0  0  0  0  0  0  0  0  0
   -1.9410   -1.3180   -0.7550 H   0  0  0  0  0  0  0  0  0  0  0  0
   -0.3900    3.5190   -0.0780 H   0  0  0  0  0  0  0  0  0  0  0  0
    1.3540    2.0970    0.4890 H   0  0  0  0  0  0  0  0  0  0  0  0
    2.9180    1.8910    1.3130 H   0  0  0  0  0  0  0  0  0  0  0  0
    2.8460    1.9230   -0.4660 H   0  0  0  0  0  0  0  0  0  0  0  0
    1.7640   -0.2420    1.3890 H   0  0  0  0  0  0  0  0  0  0  0  0
    3.8930   -0.1850   -0.8000 H   0  0  0  0  0  0  0  0  0  0  0  0
    4.2110   -2.5850   -0.2210 H   0  0  0  0  0  0  0  0  0  0  0  0
    2.8170   -2.4940    0.8820 H   0  0  0  0  0  0  0  0  0  0  0  0
    2.7370   -1.9340   -2.1180 H   0  0  0  0  0  0  0  0  0  0  0  0
    2.1710   -3.4290   -1.3320 H   0  0  0  0  0  0  0  0  0  0  0  0
    0.3130   -1.7900   -1.7980 H   0  0  0  0  0  0  0  0  0  0  0  0
    0.4870   -2.1770   -0.0680 H   0  0  0  0  0  0  0  0  0  0  0  0
   -5.3160   -0.4310    1.7050 H   0  0  0  0  0  0  0  0  0  0  0  0
   -2.5270    3.5620    1.3070 H   0  0  0  0  0  0  0  0  0  0  0  0
    6.2560   -0.6510    1.9670 H   0  0  0  0  0  0  0  0  0  0  0  0
  7  8  1  0  0  0  0
  8  9  1  0  0  0  0
 10 18  2  0  0  0  0
 10 19  1  0  0  0  0
  9 10  1  0  0  0  0
  9 11  1  0  0  0  0
 11 12  1  0  0  0  0
 12 13  1  0  0  0  0
 13 15  1  0  0  0  0
 15 22  1  0  0  0  0
 20 22  2  0  0  0  0
  4  5  2  0  0  0  0
  4 16  1  0  0  0  0
  2 16  1  0  0  0  0
  2  3  2  0  0  0  0
  1  3  1  0  0  0  0
  1  6  2  0  0  0  0
  6 23  1  0  0  0  0
  6 14  1  0  0  0  0
 14 17  2  0  0  0  0
  5 22  1  0  0  0  0
 21 22  2  0  0  0  0
  8 15  1  0  0  0  0
  3  5  1  0  0  0  0
  2 17  1  0  0  0  0
  1 24  1  0  0  0  0
  4 25  1  0  0  0  0
  7 26  1  0  0  0  0
  7 27  1  0  0  0  0
  7 28  1  0  0  0  0
  8 29  1  0  0  0  0
  9 30  1  0  0  0  0
 11 31  1  0  0  0  0
 11 32  1  0  0  0  0
 12 33  1  0  0  0  0
 12 34  1  0  0  0  0
 13 35  1  0  0  0  0
 13 36  1  0  0  0  0
 14 37  1  0  0  0  0
 16 38  1  0  0  0  0
 19 39  1  0  0  0  0
M  END
> <OPENEYE_ISO_SMILES>
C[C@@H]1[C@H](CCCN1S(=O)(=O)c2c[nH]c3c2cc(cn3)Cl)C(=O)O

> <OPENEYE_INCHI>
InChI=1S/C14H16ClN3O4S/c1-8-10(14(19)20)3-2-4-18(8)23(21,22)12-7-17-13-11(12)5-9(15)6-16-13/h5-8,10H,2-4H2,1H3,(H,16,17)(H,19,20)/t8-,10+/m1/s1

> <OPENEYE_INCHIKEY>
USMKACAPCCXDJA-SCZZXKLOSA-N

> <FORMULA>
C14H16ClN3O4S

$$$$
