@<TRIPOS>MOLECULE
/home/pku/3cl/gett_pdb/6XQS/6XQS_mol2/ligand/6XQS_SV6.pdb
 49 53 0 0 0
SMALL
GASTEIGER

@<TRIPOS>ATOM
      1  CBN       11.8600    8.5610   26.8520 C.ar  401  SV6401      0.1552
      2  CBO       12.1250   10.1540   28.4840 C.ar  401  SV6401      0.1196
      3  CBP       12.5470    9.1620   29.3510 C.ar  401  SV6401      0.1195
      4  CBB       11.4530    8.1010   25.4310 C.2   401  SV6401      0.2845
      5  CBQ       12.2510    7.5700   27.7260 C.ar  401  SV6401      0.1226
      6  OBW       11.2890    8.8250   24.5050 O.2   401  SV6401     -0.2666
      7  NAF       11.7760    9.8290   27.2360 N.ar  401  SV6401     -0.2360
      8  NAG       12.6050    7.8910   28.9600 N.ar  401  SV6401     -0.2390
      9  NAD       11.2950    6.6610   25.3030 N.am  401  SV6401     -0.1927
     10  CAY       10.8510    6.0780   24.0600 C.3   401  SV6401      0.1730
     11  CAX       10.0520    4.8890   24.5920 C.2   401  SV6401      0.2616
     12  OBU       10.1440    4.4450   25.7090 O.2   401  SV6401     -0.2715
     13  CBH       11.9570    5.5600   23.1130 C.3   401  SV6401      0.0290
     14  CBI       12.8860    6.7110   22.6170 C.3   401  SV6401      0.0022
     15  CBJ       13.9400    6.1180   21.6610 C.3   401  SV6401      0.0001
     16  CBK       14.7940    5.0590   22.4040 C.3   401  SV6401      0.0000
     17  CBL       13.9540    3.9120   23.0090 C.3   401  SV6401      0.0001
     18  CBM       12.7140    4.4220   23.8070 C.3   401  SV6401      0.0022
     19  NAC        9.1020    4.2780   23.6590 N.am  401  SV6401     -0.1964
     20  CAW        8.3790    3.1410   24.1680 C.3   401  SV6401      0.1711
     21  CAZ        6.8620    3.3850   24.1550 C.3   401  SV6401      0.0269
     22  CBC        6.3750    3.8920   22.7760 C.3   401  SV6401      0.0022
     23  CBD        6.5410    4.4730   25.1960 C.3   401  SV6401      0.0022
     24  CBA        6.1420    2.0600   24.5530 C.3   401  SV6401      0.0022
     25  CAV        8.7320    1.9320   23.3220 C.2   401  SV6401      0.2458
     26  OBT        8.5260    1.8480   22.1350 O.2   401  SV6401     -0.2730
     27  C          8.4690   -1.1690   23.1980 C.2   401  SV6401      0.2595
     28  N          9.3730    0.7920   24.0180 N.am  401  SV6401     -0.2716
     29  O          7.8400   -1.4580   24.1690 O.2   401  SV6401     -0.2716
     30  CA         9.7190   -0.4260   23.3370 C.3   401  SV6401      0.1535
     31  CB        10.8210   -1.1480   24.2180 C.3   401  SV6401      0.0288
     32  CG        10.8570   -0.2980   25.5010 C.3   401  SV6401      0.0219
     33  CBE       12.2890   -1.0260   23.3770 C.3   401  SV6401      0.0022
     34  CBF       12.9660    0.0070   23.9190 C.3   401  SV6401      0.0001
     35  CD1        9.7170    0.6640   25.2930 C.3   401  SV6401      0.0939
     36  CD2       12.3990    0.2270   25.3090 C.3   401  SV6401      0.0018
     37  NAA        5.1700   -5.1250   22.4220 N.am  401  SV6401     -0.2050
     38  NAE        7.9490   -1.5120   21.8840 N.am  401  SV6401     -0.2027
     39  CAH        6.6660   -2.2080   21.8150 C.3   401  SV6401      0.1347
     40  CAI        6.7780   -3.6210   21.2370 C.3   401  SV6401      0.2487
     41  CAJ        5.8240   -1.2920   20.9190 C.3   401  SV6401      0.0248
     42  CAK        5.1140   -0.2850   21.8640 C.3   401  SV6401      0.0019
     43  CAL        4.5450    0.8600   20.9850 C.3   401  SV6401      0.0001
     44  CAM        5.4160   -4.3230   21.2390 C.2   401  SV6401      0.2736
     45  CAN        3.9430   -5.8740   22.6420 C.3   401  SV6401      0.0955
     46  CAO        3.5430   -6.0310   24.1140 C.3   401  SV6401      0.0234
     47  CAP        2.8630   -4.9750   23.2390 C.3   401  SV6401      0.0234
     48  OBR        7.6640   -4.3490   22.0280 O.3   401  SV6401     -0.2113
     49  OBS        4.6320   -4.2360   20.3290 O.2   401  SV6401     -0.2705
@<TRIPOS>BOND
     1    49    44    2
     2    41    39    1
     3    41    42    1
     4    43    42    1
     5    40    44    1
     6    40    39    1
     7    40    48    1
     8    44    37   am
     9    15    16    1
    10    15    14    1
    11    39    38    1
    12    38    27   am
    13    26    25    2
    14    16    17    1
    15    37    45    1
    16    14    13    1
    17    45    47    1
    18    45    46    1
    19    22    21    1
    20    17    18    1
    21    13    18    1
    22    13    10    1
    23    27    30    1
    24    27    29    2
    25    47    46    1
    26    25    28   am
    27    25    20    1
    28    30    28    1
    29    30    31    1
    30    33    34    1
    31    33    31    1
    32    19    20    1
    33    19    11   am
    34    34    36    1
    35    28    35    1
    36    10    11    1
    37    10     9    1
    38    21    20    1
    39    21    24    1
    40    21    23    1
    41    31    32    1
    42     6     4    2
    43    11    12    2
    44    35    32    1
    45     9     4   am
    46    36    32    1
    47     4     1    1
    48     1     7   ar
    49     1     5   ar
    50     7     2   ar
    51     5     8   ar
    52     2     3   ar
    53     8     3   ar
