WPY
  -OEChem-02242320043D

 15 15  0     0  0  0  0  0  0999 V2000
    1.3400   -1.3710   -0.0000 N   0  0  0  0  0  0  0  0  0  0  0  0
    2.5470    0.5080    0.0000 C   0  0  0  0  0  0  0  0  0  0  0  0
   -1.6940    1.1580   -0.0000 O   0  0  0  0  0  0  0  0  0  0  0  0
   -1.9800   -0.0200   -0.0000 C   0  0  0  0  0  0  0  0  0  0  0  0
   -3.4270   -0.4440    0.0000 C   0  0  0  0  0  0  0  0  0  0  0  0
   -1.0050   -0.9510    0.0000 N   0  0  0  0  0  0  0  0  0  0  0  0
    0.3280   -0.5600   -0.0000 C   0  0  0  0  0  0  0  0  0  0  0  0
    0.8740    1.0600    0.0000 S   0  0  0  0  0  0  0  0  0  0  0  0
    2.5420   -0.8270    0.0000 C   0  0  0  0  0  0  0  0  0  0  0  0
    3.4240    1.1390    0.0010 H   0  0  0  0  0  0  0  0  0  0  0  0
   -3.7760   -0.5470   -1.0270 H   0  0  0  0  0  0  0  0  0  0  0  0
   -3.5250   -1.4000    0.5150 H   0  0  0  0  0  0  0  0  0  0  0  0
   -4.0250    0.3080    0.5140 H   0  0  0  0  0  0  0  0  0  0  0  0
   -1.2350   -1.8940    0.0000 H   0  0  0  0  0  0  0  0  0  0  0  0
    3.4490   -1.4140    0.0010 H   0  0  0  0  0  0  0  0  0  0  0  0
  2  8  1  0  0  0  0
  7  8  1  0  0  0  0
  3  4  2  0  0  0  0
  2  9  2  0  0  0  0
  4  6  1  0  0  0  0
  4  5  1  0  0  0  0
  6  7  1  0  0  0  0
  1  7  2  0  0  0  0
  1  9  1  0  0  0  0
  2 10  1  0  0  0  0
  5 11  1  0  0  0  0
  5 12  1  0  0  0  0
  5 13  1  0  0  0  0
  6 14  1  0  0  0  0
  9 15  1  0  0  0  0
M  END
> <OPENEYE_ISO_SMILES>
CC(=O)Nc1nccs1

> <OPENEYE_INCHI>
InChI=1S/C5H6N2OS/c1-4(8)7-5-6-2-3-9-5/h2-3H,1H3,(H,6,7,8)

> <OPENEYE_INCHIKEY>
WXPLRSVMGRAIGW-UHFFFAOYSA-N

> <FORMULA>
C5H6N2OS

$$$$
