JFM
  -OEChem-02242320033D

 26 26  0     0  0  0  0  0  0999 V2000
    4.0690    1.1790    0.2840 C   0  0  0  0  0  0  0  0  0  0  0  0
    2.7310   -1.2010   -0.1500 C   0  0  0  0  0  0  0  0  0  0  0  0
   -3.0240    1.3400    1.2470 C   0  0  0  0  0  0  0  0  0  0  0  0
   -2.9600   -0.0970    0.1410 S   0  0  0  0  0  0  0  0  0  0  0  0
   -2.6850   -1.2810    0.8780 O   0  0  0  0  0  0  0  0  0  0  0  0
   -4.0240   -0.0500   -0.7990 O   0  0  0  0  0  0  0  0  0  0  0  0
   -1.5980    0.1430   -0.7690 N   0  0  0  0  0  0  0  0  0  0  0  0
   -0.2800    0.1360   -0.1310 C   0  0  0  0  0  0  0  0  0  0  0  0
    0.8050    0.0030   -1.2030 C   0  0  0  0  0  0  0  0  0  0  0  0
    2.1610   -0.0050   -0.5460 C   0  0  0  0  0  0  0  0  0  0  0  0
    2.8280    1.1860   -0.3240 C   0  0  0  0  0  0  0  0  0  0  0  0
    4.6440   -0.0180    0.6690 C   0  0  0  0  0  0  0  0  0  0  0  0
    3.9750   -1.2070    0.4510 C   0  0  0  0  0  0  0  0  0  0  0  0
    4.5920    2.1090    0.4540 H   0  0  0  0  0  0  0  0  0  0  0  0
    2.2080   -2.1300   -0.3200 H   0  0  0  0  0  0  0  0  0  0  0  0
   -2.1240    1.3660    1.8610 H   0  0  0  0  0  0  0  0  0  0  0  0
   -3.0870    2.2520    0.6540 H   0  0  0  0  0  0  0  0  0  0  0  0
   -3.9010    1.2640    1.8910 H   0  0  0  0  0  0  0  0  0  0  0  0
   -1.6740    0.2890   -1.7250 H   0  0  0  0  0  0  0  0  0  0  0  0
   -0.1360    1.0670    0.4170 H   0  0  0  0  0  0  0  0  0  0  0  0
   -0.2140   -0.7060    0.5580 H   0  0  0  0  0  0  0  0  0  0  0  0
    0.6610   -0.9280   -1.7510 H   0  0  0  0  0  0  0  0  0  0  0  0
    0.7390    0.8450   -1.8920 H   0  0  0  0  0  0  0  0  0  0  0  0
    2.3780    2.1210   -0.6240 H   0  0  0  0  0  0  0  0  0  0  0  0
    5.6170   -0.0230    1.1390 H   0  0  0  0  0  0  0  0  0  0  0  0
    4.4200   -2.1410    0.7610 H   0  0  0  0  0  0  0  0  0  0  0  0
  4  6  2  0  0  0  0
  4  7  1  0  0  0  0
  7  8  1  0  0  0  0
  4  5  2  0  0  0  0
  3  4  1  0  0  0  0
  8  9  1  0  0  0  0
  9 10  1  0  0  0  0
 10 11  2  0  0  0  0
  1 11  1  0  0  0  0
  2 10  1  0  0  0  0
  1 12  2  0  0  0  0
  2 13  2  0  0  0  0
 12 13  1  0  0  0  0
  1 14  1  0  0  0  0
  2 15  1  0  0  0  0
  3 16  1  0  0  0  0
  3 17  1  0  0  0  0
  3 18  1  0  0  0  0
  7 19  1  0  0  0  0
  8 20  1  0  0  0  0
  8 21  1  0  0  0  0
  9 22  1  0  0  0  0
  9 23  1  0  0  0  0
 11 24  1  0  0  0  0
 12 25  1  0  0  0  0
 13 26  1  0  0  0  0
M  END
> <OPENEYE_ISO_SMILES>
CS(=O)(=O)NCCc1ccccc1

> <OPENEYE_INCHI>
InChI=1S/C9H13NO2S/c1-13(11,12)10-8-7-9-5-3-2-4-6-9/h2-6,10H,7-8H2,1H3

> <OPENEYE_INCHIKEY>
JGDDFCYMSLNOGJ-UHFFFAOYSA-N

> <FORMULA>
C9H13NO2S

$$$$
