@<TRIPOS>MOLECULE
/home/pku/3cl/gett_pdb/7AIF/7AIF_mol2/ligand/7AIF_MRG.pdb
 22 24 0 0 0
SMALL
GASTEIGER

@<TRIPOS>ATOM
      1  P         -5.1540   18.8610  176.1840 P.3   817  MRG817      0.5411
      2  OP1       -6.0990   19.7180  175.4350 O.2   817  MRG817     -0.2272
      3  OP2       -3.9810   18.2870  175.4870 O.2   817  MRG817     -0.2272
      4  O5'       -4.6310   19.6800  177.4560 O.3   817  MRG817     -0.2722
      5  N9        -3.2050   18.8000  181.2640 N.ar  817  MRG817     -0.2713
      6  C4        -2.5030   18.2830  182.3290 C.ar  817  MRG817      0.1722
      7  N3        -2.5680   18.7170  183.6110 N.ar  817  MRG817     -0.1918
      8  C2        -1.7770   18.0140  184.4110 C.ar  817  MRG817      0.2606
      9  N1        -0.9880   16.9710  183.9880 N.ar  817  MRG817     -0.1709
     10  C6        -0.9100   16.5120  182.6750 C.ar  817  MRG817      0.3023
     11  O6        -0.1660   15.5620  182.3930 O.2   817  MRG817     -0.2633
     12  C5        -1.7490   17.2540  181.8110 C.ar  817  MRG817      0.1748
     13  N7        -1.9650   17.1250  180.4450 N.ar  817  MRG817     -0.2173
     14  C8        -2.8300   18.0620  180.1680 C.ar  817  MRG817      0.1816
     15  N2        -1.7190   18.3120  185.7180 N.pl3 817  MRG817     -0.0859
     16  C2'       -3.4560   21.2810  181.1380 C.3   817  MRG817      0.0894
     17  C5'       -5.4370   20.7160  178.0050 C.3   817  MRG817      0.1851
     18  C4'       -5.0580   21.0100  179.4470 C.3   817  MRG817      0.1776
     19  O4'       -5.0570   19.7860  180.2170 O.3   817  MRG817     -0.3326
     20  C1'       -4.1410   19.9190  181.2960 C.3   817  MRG817      0.2095
     21  C3'       -3.6670   21.5700  179.6570 C.3   817  MRG817      0.1859
     22  O3'       -3.6470   22.9660  179.3910 O.3   817  MRG817     -0.2203
@<TRIPOS>BOND
     1     2     1    2
     2     3     1    2
     3     1     4    1
     4     4    17    1
     5    17    18    1
     6    22    21    1
     7    18    21    1
     8    18    19    1
     9    21    16    1
    10    14    13   ar
    11    14     5   ar
    12    19    20    1
    13    13    12   ar
    14    16    20    1
    15     5    20    1
    16     5     6   ar
    17    12     6   ar
    18    12    10   ar
    19     6     7   ar
    20    11    10    2
    21    10     9   ar
    22     7     8   ar
    23     9     8   ar
    24     8    15    1
