@<TRIPOS>MOLECULE
/home/pku/3cl/gett_pdb/5S2E/5S2E_mol2/ligand/5S2E_VZM.pdb
 17 18 0 0 0
SMALL
GASTEIGER

@<TRIPOS>ATOM
      1  N1        -8.0870   15.0360    4.7420 N.am  401  VZM401     -0.1541
      2  C4        -6.1620   14.8200    1.6070 C.ar  401  VZM401      0.0943
      3  C5        -7.9310   15.0740    3.3500 C.2   401  VZM401      0.3483
      4  C6        -9.2940   15.0760    5.4510 C.ar  401  VZM401      0.1044
      5  C7        -9.3900   15.2320    6.8350 C.ar  401  VZM401      0.0238
      6  C8       -10.7730   15.1860    7.2500 C.ar  401  VZM401      0.0089
      7  C10       -4.8080   14.8940    1.2850 C.ar  401  VZM401      0.1186
      8  O1        -8.8970   15.1830    2.5920 O.2   401  VZM401     -0.2484
      9  S        -10.8680   14.8910    4.7040 S.2   401  VZM401     -0.0699
     10  C9       -11.6470   15.0120    6.2280 C.ar  401  VZM401      0.0367
     11  N         -6.6290   14.9800    2.9280 N.am  401  VZM401     -0.1591
     12  C3        -7.0660   14.7290    0.5620 C.ar  401  VZM401      0.0230
     13  C2        -6.6170   14.7750   -0.7380 C.ar  401  VZM401      0.0591
     14  N2        -4.3410   14.9070    0.0320 N.ar  401  VZM401     -0.2088
     15  C1        -5.2420   14.8530   -0.9410 C.ar  401  VZM401      0.2251
     16  O         -4.8820   14.8660   -2.2370 O.3   401  VZM401     -0.4561
     17  C         -3.4910   14.9110   -2.5510 C.3   401  VZM401      0.2542
@<TRIPOS>BOND
     1    17    16    1
     2    16    15    1
     3    15    13   ar
     4    15    14   ar
     5    13    12   ar
     6    14     7   ar
     7    12     2   ar
     8     7     2   ar
     9     2    11    1
    10     8     3    2
    11    11     3   am
    12     3     1   am
    13     9     4   ar
    14     9    10   ar
    15     1     4    1
    16     4     5   ar
    17    10     6   ar
    18     5     6   ar
