SYH
  -OEChem-02242320043D

 35 37  0     0  0  0  0  0  0999 V2000
   -2.7400   -0.5940    1.1900 C   0  0  0  0  0  0  0  0  0  0  0  0
   -3.8390    0.6710   -1.2860 C   0  0  0  0  0  0  0  0  0  0  0  0
   -0.7880   -0.7290   -0.2750 C   0  0  0  0  0  0  0  0  0  0  0  0
    0.0890   -0.7650    0.9500 C   0  0  0  0  0  0  0  0  0  0  0  0
    2.2150    1.5800    0.3410 C   0  0  0  0  0  0  0  0  0  0  0  0
    3.5790   -0.3790   -0.0600 C   0  0  0  0  0  0  0  0  0  0  0  0
    4.6590    0.4580   -0.3700 C   0  0  0  0  0  0  0  0  0  0  0  0
    4.5050    1.8120   -0.3150 C   0  0  0  0  0  0  0  0  0  0  0  0
    3.2850    2.3740    0.0400 C   0  0  0  0  0  0  0  0  0  0  0  0
    2.3480    0.1960    0.2990 C   0  0  0  0  0  0  0  0  0  0  0  0
   -2.9890   -0.6120   -1.3310 C   0  0  0  0  0  0  0  0  0  0  0  0
   -2.1270   -0.6470   -0.1430 N   0  0  0  0  0  0  0  0  0  0  0  0
    1.4940   -0.8540    0.5430 N   0  0  0  0  0  0  0  0  0  0  0  0
   -3.5780    0.6860    1.3000 C   0  0  0  0  0  0  0  0  0  0  0  0
    2.2320   -2.0260    0.3250 N   0  0  0  0  0  0  0  0  0  0  0  0
   -5.7660    0.9430    0.2130 C   0  0  0  0  0  0  0  0  0  0  0  0
   -4.4730    0.7770    0.0840 C   0  0  0  0  0  0  0  0  0  0  0  0
    3.4320   -1.7190   -0.0220 N   0  0  0  0  0  0  0  0  0  0  0  0
   -0.2890   -0.7730   -1.3800 O   0  0  0  0  0  0  0  0  0  0  0  0
   -3.3810   -1.4640    1.3330 H   0  0  0  0  0  0  0  0  0  0  0  0
   -1.9590   -0.5860    1.9510 H   0  0  0  0  0  0  0  0  0  0  0  0
   -3.2030    1.5390   -1.4620 H   0  0  0  0  0  0  0  0  0  0  0  0
   -4.6160    0.6240   -2.0490 H   0  0  0  0  0  0  0  0  0  0  0  0
   -0.0630    0.1440    1.5320 H   0  0  0  0  0  0  0  0  0  0  0  0
   -0.1690   -1.6330    1.5560 H   0  0  0  0  0  0  0  0  0  0  0  0
    1.2700    2.0250    0.6160 H   0  0  0  0  0  0  0  0  0  0  0  0
    5.6120    0.0320   -0.6470 H   0  0  0  0  0  0  0  0  0  0  0  0
    5.3390    2.4550   -0.5550 H   0  0  0  0  0  0  0  0  0  0  0  0
    3.1820    3.4480    0.0780 H   0  0  0  0  0  0  0  0  0  0  0  0
   -3.6440   -1.4840   -1.3330 H   0  0  0  0  0  0  0  0  0  0  0  0
   -2.3770   -0.6130   -2.2330 H   0  0  0  0  0  0  0  0  0  0  0  0
   -4.1880    0.6490    2.2030 H   0  0  0  0  0  0  0  0  0  0  0  0
   -2.9200    1.5540    1.3370 H   0  0  0  0  0  0  0  0  0  0  0  0
   -6.3930    1.0050   -0.6640 H   0  0  0  0  0  0  0  0  0  0  0  0
   -6.2050    1.0170    1.1970 H   0  0  0  0  0  0  0  0  0  0  0  0
 15 18  2  0  0  0  0
  6 18  1  0  0  0  0
 13 15  1  0  0  0  0
  6  7  1  0  0  0  0
  7  8  2  0  0  0  0
  6 10  2  0  0  0  0
  8  9  1  0  0  0  0
 10 13  1  0  0  0  0
  4 13  1  0  0  0  0
  5 10  1  0  0  0  0
  3  4  1  0  0  0  0
  5  9  2  0  0  0  0
  3 19  2  0  0  0  0
  3 12  1  0  0  0  0
 11 12  1  0  0  0  0
  1 12  1  0  0  0  0
  2 11  1  0  0  0  0
  2 17  1  0  0  0  0
  1 14  1  0  0  0  0
 14 17  1  0  0  0  0
 16 17  2  0  0  0  0
  1 20  1  0  0  0  0
  1 21  1  0  0  0  0
  2 22  1  0  0  0  0
  2 23  1  0  0  0  0
  4 24  1  0  0  0  0
  4 25  1  0  0  0  0
  5 26  1  0  0  0  0
  7 27  1  0  0  0  0
  8 28  1  0  0  0  0
  9 29  1  0  0  0  0
 11 30  1  0  0  0  0
 11 31  1  0  0  0  0
 14 32  1  0  0  0  0
 14 33  1  0  0  0  0
 16 34  1  0  0  0  0
 16 35  1  0  0  0  0
M  END
> <OPENEYE_ISO_SMILES>
C=C1CCN(CC1)C(=O)Cn2c3ccccc3nn2

> <OPENEYE_INCHI>
InChI=1S/C14H16N4O/c1-11-6-8-17(9-7-11)14(19)10-18-13-5-3-2-4-12(13)15-16-18/h2-5H,1,6-10H2

> <OPENEYE_INCHIKEY>
WYBCNWLSBYEMQV-UHFFFAOYSA-N

> <FORMULA>
C14H16N4O

$$$$
