@<TRIPOS>MOLECULE
/home/pku/3cl/gett_pdb/7TLL/7TLL_mol2/ligand/7TLL_4WI.pdb
 35 37 0 0 0
SMALL
GASTEIGER

@<TRIPOS>ATOM
      1  C8         0.1680   -1.0050   17.6550 C.2   401  4WI401      0.2410
      2  C3        -0.8140    3.6290   16.1680 C.2   401  4WI401      0.1171
      3  C1        -2.5210    1.2950   14.2390 C.2   401  4WI401      0.2597
      4  C13       -2.6140   -1.5020   13.1110 C.2   401  4WI401      0.2458
      5  C21       -2.8010   -3.9560   10.9280 C.2   401  4WI401      0.3371
      6  C6        -2.0420   -0.1990   17.9240 C.3   401  4WI401      0.0326
      7  C7        -1.9330   -1.5740   18.5620 C.3   401  4WI401      0.1156
      8  C10       -4.3800   -0.1920   11.8180 C.3   401  4WI401      0.0939
      9  C5        -0.8480   -0.1080   16.9660 C.3   401  4WI401      0.0821
     10  C9        -2.3950    0.9250   12.7910 C.3   401  4WI401      0.1535
     11  C11       -4.3140    1.2200   11.3120 C.3   401  4WI401      0.0220
     12  C12       -3.1230    1.9020   11.9140 C.3   401  4WI401      0.0289
     13  C18       -3.2090    1.7280   10.3990 C.3   401  4WI401      0.0037
     14  C19       -2.2730    0.7550    9.7560 C.3   401  4WI401      0.0001
     15  C20       -3.5300    2.9340    9.6020 C.3   401  4WI401      0.0001
     16  C16       -4.9060   -4.4900   13.8520 C.3   401  4WI401      0.0022
     17  C17       -4.8330   -2.2640   14.9220 C.3   401  4WI401      0.0022
     18  C23       -2.9550   -3.8600   15.1630 C.3   401  4WI401      0.0022
     19  C4        -0.3120    1.3060   16.9090 C.3   401  4WI401      0.0371
     20  C2        -1.2770    2.2010   16.1450 C.3   401  4WI401      0.1386
     21  C14       -3.4300   -2.7620   12.9270 C.3   401  4WI401      0.1714
     22  C22       -1.6840   -4.7100   10.2750 C.3   401  4WI401      0.4711
     23  C15       -4.0160   -3.3240   14.2140 C.3   401  4WI401      0.0269
     24  N5        -1.0430    4.3820   17.1900 N.2   401  4WI401     -0.1496
     25  N2        -0.5250   -1.8700   18.4840 N.am  401  4WI401     -0.2054
     26  N3        -3.1620   -0.3260   12.6530 N.am  401  4WI401     -0.2716
     27  N1        -1.3710    1.8450   14.7490 N.am  401  4WI401     -0.1996
     28  N4        -2.5500   -3.6610   12.2380 N.am  401  4WI401     -0.1908
     29  O1         1.3780   -0.9630   17.5040 O.2   401  4WI401     -0.2734
     30  O2        -3.5440    1.1060   14.8770 O.2   401  4WI401     -0.2715
     31  O3        -1.5090   -1.5160   13.6240 O.2   401  4WI401     -0.2730
     32  O4        -3.8440   -3.6900   10.3500 O.2   401  4WI401     -0.2642
     33  F1        -0.4470   -4.2530   10.5880 F     401  4WI401     -0.1620
     34  F2        -1.7690   -4.6700    8.9200 F     401  4WI401     -0.1620
     35  F3        -1.6930   -6.0030   10.6480 F     401  4WI401     -0.1620
@<TRIPOS>BOND
     1    34    22    1
     2    15    13    1
     3    14    13    1
     4    22    33    1
     5    22    35    1
     6    22     5    1
     7    32     5    2
     8    13    11    1
     9    13    12    1
    10     5    28   am
    11    11     8    1
    12    11    12    1
    13     8    26    1
    14    12    10    1
    15    28    21    1
    16    26    10    1
    17    26     4   am
    18    10     3    1
    19    21     4    1
    20    21    23    1
    21     4    31    2
    22    16    23    1
    23    23    17    1
    24    23    18    1
    25     3    27   am
    26     3    30    2
    27    27    20    1
    28    20     2    1
    29    20    19    1
    30     2    24    2
    31    19     9    1
    32     9     1    1
    33     9     6    1
    34    29     1    2
    35     1    25   am
    36     6     7    1
    37    25     7    1
