YMD
  -OEChem-02242320043D

 73 74  0     1  0  0  0  0  0999 V2000
    2.4270   -0.1300    0.0140 C   0  0  0  0  0  0  0  0  0  0  0  0
    0.0720    0.0810    0.6000 C   0  0  1  0  0  0  0  0  0  0  0  0
   -0.0320    1.4340    1.3060 C   0  0  0  0  0  0  0  0  0  0  0  0
    1.2360    1.6810    2.1260 C   0  0  0  0  0  0  0  0  0  0  0  0
    1.1870    3.0850    2.7310 C   0  0  0  0  0  0  0  0  0  0  0  0
    1.3270    0.6440    3.2480 C   0  0  0  0  0  0  0  0  0  0  0  0
   -1.2250   -0.2170   -0.1080 C   0  0  0  0  0  0  0  0  0  0  0  0
   -3.6470   -0.4840   -0.1030 C   0  0  1  0  0  0  0  0  0  0  0  0
   -3.8520    0.6630   -1.0960 C   0  0  0  0  0  0  0  0  0  0  0  0
   -3.9550    1.9850   -0.3330 C   0  0  1  0  0  0  0  0  0  0  0  0
   -4.1490    3.1370   -1.2940 C   0  0  0  0  0  0  0  0  0  0  0  0
   -5.6670    3.4820    0.4290 C   0  0  0  0  0  0  0  0  0  0  0  0
   -5.2280    2.0050    0.5440 C   0  0  0  0  0  0  0  0  0  0  0  0
   -3.6320   -1.8150   -0.8580 C   0  0  2  0  0  0  0  0  0  0  0  0
    4.7660   -0.3800   -0.3920 C   0  0  0  0  0  0  0  0  0  0  0  0
    5.5940   -1.0230   -1.5060 C   0  0  0  0  0  0  0  0  0  0  0  0
    7.0030   -1.3200   -0.9880 C   0  0  0  0  0  0  0  0  0  0  0  0
    7.6690   -0.0160   -0.5440 C   0  0  0  0  0  0  0  0  0  0  0  0
    9.0770   -0.3130   -0.0260 C   0  0  0  0  0  0  0  0  0  0  0  0
    7.7550    0.9430   -1.7340 C   0  0  0  0  0  0  0  0  0  0  0  0
    6.8400    0.6270    0.5700 C   0  0  0  0  0  0  0  0  0  0  0  0
    5.4320    0.9250    0.0510 C   0  0  0  0  0  0  0  0  0  0  0  0
    1.1630    0.1230   -0.3770 N   0  0  0  0  0  0  0  0  0  0  0  0
   -2.3720   -0.3040    0.5950 N   0  0  0  0  0  0  0  0  0  0  0  0
   -5.1150    3.9560   -0.8460 N   0  0  0  0  0  0  0  0  0  0  0  0
    2.6630   -0.3920    1.1770 O   0  0  0  0  0  0  0  0  0  0  0  0
   -3.5220    3.2980   -2.3200 O   0  0  0  0  0  0  0  0  0  0  0  0
   -4.8680   -1.9820   -1.5550 O   0  0  0  0  0  0  0  0  0  0  0  0
   -1.2370   -0.3790   -1.3100 O   0  0  0  0  0  0  0  0  0  0  0  0
    3.4290   -0.0970   -0.8850 O   0  0  0  0  0  0  0  0  0  0  0  0
    0.2720   -0.6980    1.3350 H   0  0  0  0  0  0  0  0  0  0  0  0
   -0.1440    2.2240    0.5630 H   0  0  0  0  0  0  0  0  0  0  0  0
   -0.8990    1.4330    1.9680 H   0  0  0  0  0  0  0  0  0  0  0  0
    2.1090    1.5940    1.4790 H   0  0  0  0  0  0  0  0  0  0  0  0
    0.3140    3.1720    3.3780 H   0  0  0  0  0  0  0  0  0  0  0  0
    2.0910    3.2600    3.3150 H   0  0  0  0  0  0  0  0  0  0  0  0
    1.1220    3.8230    1.9320 H   0  0  0  0  0  0  0  0  0  0  0  0
    2.2300    0.8200    3.8320 H   0  0  0  0  0  0  0  0  0  0  0  0
    0.4540    0.7310    3.8940 H   0  0  0  0  0  0  0  0  0  0  0  0
    1.3610   -0.3560    2.8170 H   0  0  0  0  0  0  0  0  0  0  0  0
   -4.4610   -0.4860    0.6220 H   0  0  0  0  0  0  0  0  0  0  0  0
   -3.0060    0.7040   -1.7820 H   0  0  0  0  0  0  0  0  0  0  0  0
   -4.7690    0.4950   -1.6600 H   0  0  0  0  0  0  0  0  0  0  0  0
   -3.0670    2.1410    0.2790 H   0  0  0  0  0  0  0  0  0  0  0  0
   -6.7540    3.5530    0.4200 H   0  0  0  0  0  0  0  0  0  0  0  0
   -5.2580    4.0620    1.2570 H   0  0  0  0  0  0  0  0  0  0  0  0
   -5.9910    1.3400    0.1400 H   0  0  0  0  0  0  0  0  0  0  0  0
   -4.9950    1.7470    1.5770 H   0  0  0  0  0  0  0  0  0  0  0  0
   -3.4140   -3.1760    0.3220 S   0  0  0  0  0  0  0  0  0  0  0  0
   -2.8090   -1.8180   -1.5720 H   0  0  0  0  0  0  0  0  0  0  0  0
    4.7040   -1.0620    0.4550 H   0  0  0  0  0  0  0  0  0  0  0  0
    5.1200   -1.9520   -1.8220 H   0  0  0  0  0  0  0  0  0  0  0  0
    5.6560   -0.3400   -2.3540 H   0  0  0  0  0  0  0  0  0  0  0  0
    6.9410   -2.0030   -0.1400 H   0  0  0  0  0  0  0  0  0  0  0  0
    7.5930   -1.7780   -1.7810 H   0  0  0  0  0  0  0  0  0  0  0  0
    9.6670   -0.7710   -0.8190 H   0  0  0  0  0  0  0  0  0  0  0  0
    9.5520    0.6160    0.2900 H   0  0  0  0  0  0  0  0  0  0  0  0
    9.0160   -0.9960    0.8220 H   0  0  0  0  0  0  0  0  0  0  0  0
    6.7520    1.1550   -2.1030 H   0  0  0  0  0  0  0  0  0  0  0  0
    8.2300    1.8720   -1.4180 H   0  0  0  0  0  0  0  0  0  0  0  0
    8.3450    0.4850   -2.5270 H   0  0  0  0  0  0  0  0  0  0  0  0
    6.7790   -0.0550    1.4170 H   0  0  0  0  0  0  0  0  0  0  0  0
    7.3150    1.5560    0.8850 H   0  0  0  0  0  0  0  0  0  0  0  0
    5.4930    1.6070   -0.7970 H   0  0  0  0  0  0  0  0  0  0  0  0
    4.8420    1.3830    0.8440 H   0  0  0  0  0  0  0  0  0  0  0  0
    0.9750    0.3320   -1.3050 H   0  0  0  0  0  0  0  0  0  0  0  0
   -2.3530   -0.2470    1.5630 H   0  0  0  0  0  0  0  0  0  0  0  0
   -5.4110    4.7570   -1.3060 H   0  0  0  0  0  0  0  0  0  0  0  0
   -5.0510   -1.2880   -2.2040 H   0  0  0  0  0  0  0  0  0  0  0  0
   -4.3420   -3.0620    1.3920 O   0  0  0  0  0  0  0  0  0  0  0  0
   -3.2360   -4.4070   -0.3650 O   0  0  0  0  0  0  0  0  0  0  0  0
   -2.0620   -2.9070    0.9670 O   0  0  0  0  0  0  0  0  0  0  0  0
   -1.8060   -3.5620    1.6300 H   0  0  0  0  0  0  0  0  0  0  0  0
 18 19  1  0  0  0  0
 18 21  1  0  0  0  0
 21 22  1  0  0  0  0
 11 27  2  0  0  0  0
 17 18  1  0  0  0  0
 18 20  1  0  0  0  0
 15 22  1  0  0  0  0
 16 17  1  0  0  0  0
 11 25  1  0  0  0  0
 10 11  1  0  0  0  0
 15 16  1  0  0  0  0
 15 30  1  0  0  0  0
 12 25  1  0  0  0  0
  1 26  2  0  0  0  0
  1 30  1  0  0  0  0
  1 23  1  0  0  0  0
  9 10  1  0  0  0  0
 10 13  1  0  0  0  0
 12 13  1  0  0  0  0
  4  5  1  0  0  0  0
  8  9  1  0  0  0  0
  2 23  1  0  0  0  0
  8 24  1  0  0  0  0
  7 24  1  0  0  0  0
  2  7  1  0  0  0  0
  2  3  1  0  0  0  0
  8 14  1  0  0  0  0
  3  4  1  0  0  0  0
  4  6  1  0  0  0  0
  7 29  2  0  0  0  0
 14 28  1  0  0  0  0
  2 31  1  0  0  0  0
  3 32  1  0  0  0  0
  3 33  1  0  0  0  0
  4 34  1  0  0  0  0
  5 35  1  0  0  0  0
  5 36  1  0  0  0  0
  5 37  1  0  0  0  0
  6 38  1  0  0  0  0
  6 39  1  0  0  0  0
  6 40  1  0  0  0  0
  8 41  1  0  0  0  0
  9 42  1  0  0  0  0
  9 43  1  0  0  0  0
 10 44  1  0  0  0  0
 12 45  1  0  0  0  0
 12 46  1  0  0  0  0
 13 47  1  0  0  0  0
 13 48  1  0  0  0  0
 14 49  1  0  0  0  0
 14 50  1  0  0  0  0
 15 51  1  0  0  0  0
 16 52  1  0  0  0  0
 16 53  1  0  0  0  0
 17 54  1  0  0  0  0
 17 55  1  0  0  0  0
 19 56  1  0  0  0  0
 19 57  1  0  0  0  0
 19 58  1  0  0  0  0
 20 59  1  0  0  0  0
 20 60  1  0  0  0  0
 20 61  1  0  0  0  0
 21 62  1  0  0  0  0
 21 63  1  0  0  0  0
 22 64  1  0  0  0  0
 22 65  1  0  0  0  0
 23 66  1  0  0  0  0
 24 67  1  0  0  0  0
 25 68  1  0  0  0  0
 28 69  1  0  0  0  0
 49 70  2  0  0  0  0
 49 71  2  0  0  0  0
 49 72  1  0  0  0  0
 72 73  1  0  0  0  0
M  END
> <OPENEYE_ISO_SMILES>
CC(C)C[C@@H](C(=O)N[C@@H](C[C@@H]1CCNC1=O)[C@H](O)S(=O)(=O)O)NC(=O)OC2CCC(CC2)(C)C

> <OPENEYE_INCHI>
InChI=1S/C22H39N3O8S/c1-13(2)11-16(25-21(29)33-15-5-8-22(3,4)9-6-15)19(27)24-17(20(28)34(30,31)32)12-14-7-10-23-18(14)26/h13-17,20,28H,5-12H2,1-4H3,(H,23,26)(H,24,27)(H,25,29)(H,30,31,32)/t14-,16-,17-,20+/m0/s1

> <OPENEYE_INCHIKEY>
LGCFVMZACNBZBJ-JWWIWJDOSA-N

> <FORMULA>
C22H39N3O8S

$$$$
