YMG
  -OEChem-02242320043D

 73 74  0     1  0  0  0  0  0999 V2000
   -3.0380   -0.1630    0.2190 C   0  0  1  0  0  0  0  0  0  0  0  0
   -3.8830    0.8600   -0.5440 C   0  0  0  0  0  0  0  0  0  0  0  0
   -3.1130    2.1780   -0.6520 C   0  0  1  0  0  0  0  0  0  0  0  0
   -3.9540    3.2260   -1.3470 C   0  0  0  0  0  0  0  0  0  0  0  0
   -3.0040    4.2850    0.4880 C   0  0  0  0  0  0  0  0  0  0  0  0
    2.9320   -0.1870    0.0360 C   0  0  0  0  0  0  0  0  0  0  0  0
    0.6520   -0.8220   -0.5440 C   0  0  1  0  0  0  0  0  0  0  0  0
    0.7490   -2.1740   -1.2540 C   0  0  0  0  0  0  0  0  0  0  0  0
   -0.3330   -2.2620   -2.3320 C   0  0  0  0  0  0  0  0  0  0  0  0
   -0.0630   -1.2140   -3.4130 C   0  0  0  0  0  0  0  0  0  0  0  0
   -0.3150   -3.6580   -2.9590 C   0  0  0  0  0  0  0  0  0  0  0  0
   -0.6680   -0.7270    0.1770 C   0  0  0  0  0  0  0  0  0  0  0  0
   -2.8550    2.7700    0.7530 C   0  0  0  0  0  0  0  0  0  0  0  0
   -3.8120   -1.4780    0.3350 C   0  0  1  0  0  0  0  0  0  0  0  0
    5.2150    0.3990    0.4110 C   0  0  0  0  0  0  0  0  0  0  0  0
    5.9800    1.0230    1.5800 C   0  0  0  0  0  0  0  0  0  0  0  0
    7.2930    1.6180    1.0690 C   0  0  0  0  0  0  0  0  0  0  0  0
    8.1420    0.5140    0.4360 C   0  0  0  0  0  0  0  0  0  0  0  0
    9.4560    1.1090   -0.0740 C   0  0  0  0  0  0  0  0  0  0  0  0
    8.4420   -0.5620    1.4820 C   0  0  0  0  0  0  0  0  0  0  0  0
    7.3770   -0.1110   -0.7320 C   0  0  0  0  0  0  0  0  0  0  0  0
    6.0630   -0.7060   -0.2220 C   0  0  0  0  0  0  0  0  0  0  0  0
    1.7460   -0.6980    0.4220 N   0  0  0  0  0  0  0  0  0  0  0  0
   -1.7840   -0.3960   -0.5020 N   0  0  0  0  0  0  0  0  0  0  0  0
   -3.8780    4.3930   -0.6850 N   0  0  0  0  0  0  0  0  0  0  0  0
    3.0660    0.2540   -1.0880 O   0  0  0  0  0  0  0  0  0  0  0  0
   -4.6010    3.0400   -2.3560 O   0  0  0  0  0  0  0  0  0  0  0  0
   -2.9780   -2.4690    0.9400 O   0  0  0  0  0  0  0  0  0  0  0  0
   -0.7260   -0.9480    1.3680 O   0  0  0  0  0  0  0  0  0  0  0  0
    3.9680   -0.1660    0.8950 O   0  0  0  0  0  0  0  0  0  0  0  0
   -2.8190    0.2190    1.2160 H   0  0  0  0  0  0  0  0  0  0  0  0
   -4.0970    0.4810   -1.5430 H   0  0  0  0  0  0  0  0  0  0  0  0
   -4.8190    1.0280   -0.0110 H   0  0  0  0  0  0  0  0  0  0  0  0
   -2.1730    2.0270   -1.1810 H   0  0  0  0  0  0  0  0  0  0  0  0
   -3.4630    4.7740    1.3470 H   0  0  0  0  0  0  0  0  0  0  0  0
   -2.0300    4.7280    0.2780 H   0  0  0  0  0  0  0  0  0  0  0  0
    0.7230   -0.0200   -1.2780 H   0  0  0  0  0  0  0  0  0  0  0  0
    1.7310   -2.2710   -1.7170 H   0  0  0  0  0  0  0  0  0  0  0  0
    0.6070   -2.9760   -0.5300 H   0  0  0  0  0  0  0  0  0  0  0  0
   -1.3090   -2.0780   -1.8830 H   0  0  0  0  0  0  0  0  0  0  0  0
    0.8800   -1.4400   -3.9110 H   0  0  0  0  0  0  0  0  0  0  0  0
   -0.8720   -1.2290   -4.1440 H   0  0  0  0  0  0  0  0  0  0  0  0
   -0.0050   -0.2270   -2.9560 H   0  0  0  0  0  0  0  0  0  0  0  0
   -0.5080   -4.4050   -2.1890 H   0  0  0  0  0  0  0  0  0  0  0  0
   -1.0870   -3.7210   -3.7270 H   0  0  0  0  0  0  0  0  0  0  0  0
    0.6600   -3.8420   -3.4080 H   0  0  0  0  0  0  0  0  0  0  0  0
   -3.6030    2.4240    1.4660 H   0  0  0  0  0  0  0  0  0  0  0  0
   -1.8490    2.5310    1.0980 H   0  0  0  0  0  0  0  0  0  0  0  0
   -4.1110   -1.8120   -0.6580 H   0  0  0  0  0  0  0  0  0  0  0  0
   -5.2880   -1.2230    1.3580 S   0  0  0  0  0  0  0  0  0  0  0  0
    5.0010    1.1650   -0.3340 H   0  0  0  0  0  0  0  0  0  0  0  0
    5.3750    1.8100    2.0310 H   0  0  0  0  0  0  0  0  0  0  0  0
    6.1930    0.2570    2.3250 H   0  0  0  0  0  0  0  0  0  0  0  0
    7.0800    2.3850    0.3240 H   0  0  0  0  0  0  0  0  0  0  0  0
    7.8390    2.0630    1.9020 H   0  0  0  0  0  0  0  0  0  0  0  0
   10.0010    1.5540    0.7590 H   0  0  0  0  0  0  0  0  0  0  0  0
   10.0600    0.3220   -0.5250 H   0  0  0  0  0  0  0  0  0  0  0  0
    9.2420    1.8750   -0.8190 H   0  0  0  0  0  0  0  0  0  0  0  0
    7.5060   -0.9860    1.8460 H   0  0  0  0  0  0  0  0  0  0  0  0
    9.0460   -1.3490    1.0310 H   0  0  0  0  0  0  0  0  0  0  0  0
    8.9870   -0.1170    2.3150 H   0  0  0  0  0  0  0  0  0  0  0  0
    7.1630    0.6560   -1.4770 H   0  0  0  0  0  0  0  0  0  0  0  0
    7.9820   -0.8970   -1.1830 H   0  0  0  0  0  0  0  0  0  0  0  0
    6.2770   -1.4720    0.5230 H   0  0  0  0  0  0  0  0  0  0  0  0
    5.5180   -1.1510   -1.0550 H   0  0  0  0  0  0  0  0  0  0  0  0
    1.6170   -0.9840    1.3400 H   0  0  0  0  0  0  0  0  0  0  0  0
   -1.7580   -0.3110   -1.4680 H   0  0  0  0  0  0  0  0  0  0  0  0
   -4.3420    5.2030   -0.9490 H   0  0  0  0  0  0  0  0  0  0  0  0
   -2.1680   -2.6570    0.4460 H   0  0  0  0  0  0  0  0  0  0  0  0
   -6.0380   -2.4260    1.4590 O   0  0  0  0  0  0  0  0  0  0  0  0
   -4.9690   -0.4590    2.5130 O   0  0  0  0  0  0  0  0  0  0  0  0
   -6.1690   -0.3000    0.5290 O   0  0  0  0  0  0  0  0  0  0  0  0
   -7.0080   -0.0710    0.9530 H   0  0  0  0  0  0  0  0  0  0  0  0
 18 19  1  0  0  0  0
 18 21  1  0  0  0  0
 21 22  1  0  0  0  0
  4 27  2  0  0  0  0
 17 18  1  0  0  0  0
 18 20  1  0  0  0  0
 15 22  1  0  0  0  0
 16 17  1  0  0  0  0
  4 25  1  0  0  0  0
  3  4  1  0  0  0  0
 15 16  1  0  0  0  0
 15 30  1  0  0  0  0
  5 25  1  0  0  0  0
  6 26  2  0  0  0  0
  6 30  1  0  0  0  0
  6 23  1  0  0  0  0
  2  3  1  0  0  0  0
  3 13  1  0  0  0  0
  5 13  1  0  0  0  0
  9 10  1  0  0  0  0
  1  2  1  0  0  0  0
  7 23  1  0  0  0  0
  1 24  1  0  0  0  0
 12 24  1  0  0  0  0
  7 12  1  0  0  0  0
  7  8  1  0  0  0  0
  8  9  1  0  0  0  0
  9 11  1  0  0  0  0
  1 14  1  0  0  0  0
 12 29  2  0  0  0  0
 14 28  1  0  0  0  0
  1 31  1  0  0  0  0
  2 32  1  0  0  0  0
  2 33  1  0  0  0  0
  3 34  1  0  0  0  0
  5 35  1  0  0  0  0
  5 36  1  0  0  0  0
  7 37  1  0  0  0  0
  8 38  1  0  0  0  0
  8 39  1  0  0  0  0
  9 40  1  0  0  0  0
 10 41  1  0  0  0  0
 10 42  1  0  0  0  0
 10 43  1  0  0  0  0
 11 44  1  0  0  0  0
 11 45  1  0  0  0  0
 11 46  1  0  0  0  0
 13 47  1  0  0  0  0
 13 48  1  0  0  0  0
 14 49  1  0  0  0  0
 14 50  1  0  0  0  0
 15 51  1  0  0  0  0
 16 52  1  0  0  0  0
 16 53  1  0  0  0  0
 17 54  1  0  0  0  0
 17 55  1  0  0  0  0
 19 56  1  0  0  0  0
 19 57  1  0  0  0  0
 19 58  1  0  0  0  0
 20 59  1  0  0  0  0
 20 60  1  0  0  0  0
 20 61  1  0  0  0  0
 21 62  1  0  0  0  0
 21 63  1  0  0  0  0
 22 64  1  0  0  0  0
 22 65  1  0  0  0  0
 23 66  1  0  0  0  0
 24 67  1  0  0  0  0
 25 68  1  0  0  0  0
 28 69  1  0  0  0  0
 50 70  2  0  0  0  0
 50 71  2  0  0  0  0
 50 72  1  0  0  0  0
 72 73  1  0  0  0  0
M  END
> <OPENEYE_ISO_SMILES>
CC(C)C[C@@H](C(=O)N[C@@H](C[C@@H]1CCNC1=O)[C@@H](O)S(=O)(=O)O)NC(=O)OC2CCC(CC2)(C)C

> <OPENEYE_INCHI>
InChI=1S/C22H39N3O8S/c1-13(2)11-16(25-21(29)33-15-5-8-22(3,4)9-6-15)19(27)24-17(20(28)34(30,31)32)12-14-7-10-23-18(14)26/h13-17,20,28H,5-12H2,1-4H3,(H,23,26)(H,24,27)(H,25,29)(H,30,31,32)/t14-,16-,17-,20-/m0/s1

> <OPENEYE_INCHIKEY>
LGCFVMZACNBZBJ-VERUCKTNSA-N

> <FORMULA>
C22H39N3O8S

$$$$
