@<TRIPOS>MOLECULE
/home/pku/3cl/gett_pdb/5SPM/5SPM_mol2/ligand/5SPM_S4O.pdb
 34 36 0 0 0
SMALL
GASTEIGER

@<TRIPOS>ATOM
      1  O5       -47.6600  -28.9660    4.8030 O.2   201  S4O201     -0.4172
      2  N1       -53.1010  -28.3140    7.8190 N.ar  201  S4O201     -0.2661
      3  O4       -45.5990  -28.9400    5.5530 O.2   201  S4O201     -0.2451
      4  C13      -46.3420  -29.0980    4.6420 C.ar  201  S4O201      0.3409
      5  O2       -50.7580  -28.3870    3.4280 O.2   201  S4O201     -0.2666
      6  C12      -45.8690  -29.4050    3.3900 C.ar  201  S4O201      0.0644
      7  C11      -46.7460  -29.5860    2.3360 C.ar  201  S4O201      0.1273
      8  O3       -46.2490  -29.8800    1.0650 O.3   201  S4O201     -0.5064
      9  C10      -48.1080  -29.4540    2.5400 C.ar  201  S4O201      0.0277
     10  C9       -48.5540  -29.1420    3.8120 C.ar  201  S4O201      0.1970
     11  C8       -50.0330  -28.9760    4.1570 C.2   201  S4O201      0.2825
     12  C7       -52.1230  -28.9630    7.1440 C.ar  201  S4O201      0.0631
     13  C6       -51.8580  -29.4040    5.7950 C.3   201  S4O201      0.0573
     14  C5       -49.6220  -30.2680    6.3200 C.3   201  S4O201      0.0197
     15  C4       -49.8470  -29.9120    7.8550 C.3   201  S4O201     -0.0050
     16  C3       -51.2220  -29.1800    8.0810 C.ar  201  S4O201      0.0392
     17  C2       -51.8510  -28.5490    9.4330 C.ar  201  S4O201      0.2350
     18  C1       -54.2850  -27.8970    7.0940 C.3   201  S4O201      0.0307
     19  O1       -51.2190  -28.5640   10.6770 O.3   201  S4O201     -0.4912
     20  N2       -53.0500  -28.0490    9.0620 N.ar  201  S4O201     -0.1333
     21  N3       -50.5260  -29.5360    5.4080 N.am  201  S4O201     -0.2889
     22  H13      -44.9620  -29.5030    3.2720 H     201  S4O201      0.0726
     23  H12      -46.2580  -30.7030    0.9370 H     201  S4O201      0.2921
     24  H11      -48.7100  -29.5870    1.8420 H     201  S4O201      0.0693
     25  H9       -52.2750  -30.2840    5.7070 H     201  S4O201      0.0529
     26  H10      -52.2570  -28.7410    5.2030 H     201  S4O201      0.0529
     27  H7       -48.6940  -30.0970    6.1510 H     201  S4O201      0.0468
     28  H8       -49.7770  -31.2010    6.2050 H     201  S4O201      0.0468
     29  H5       -49.1220  -29.3380    8.1580 H     201  S4O201      0.0331
     30  H6       -49.8360  -30.7380    8.3620 H     201  S4O201      0.0331
     31  H2       -54.0240  -27.5350    6.2330 H     201  S4O201      0.0473
     32  H1       -54.7480  -27.2150    7.6040 H     201  S4O201      0.0473
     33  H3       -54.8670  -28.6600    6.9640 H     201  S4O201      0.0473
     34  H4       -51.7750  -28.3710   11.2720 H     201  S4O201      0.2938
@<TRIPOS>BOND
     1    23     8    1
     2     8     7    1
     3    24     9    1
     4     7     9   ar
     5     7     6   ar
     6     9    10   ar
     7    22     6    1
     8     6     4   ar
     9     5    11    2
    10    10    11    1
    11    10     1   ar
    12    11    21   am
    13     4     1   ar
    14     4     3    2
    15    26    13    1
    16    21    13    1
    17    21    14    1
    18    25    13    1
    19    13    12    1
    20    27    14    1
    21    28    14    1
    22    31    18    1
    23    14    15    1
    24    33    18    1
    25    18    32    1
    26    18     2    1
    27    12     2   ar
    28    12    16   ar
    29     2    20   ar
    30    15    16    1
    31    15    29    1
    32    15    30    1
    33    16    17   ar
    34    20    17   ar
    35    17    19    1
    36    19    34    1
