RYI
  -OEChem-02242320043D

 39 42  0     1  0  0  0  0  0999 V2000
   -3.3120    2.3190   -0.0440 C   0  0  0  0  0  0  0  0  0  0  0  0
   -4.2910    0.2870    0.4120 C   0  0  0  0  0  0  0  0  0  0  0  0
   -4.5570   -1.9160    0.7450 C   0  0  0  0  0  0  0  0  0  0  0  0
   -3.2540   -1.7590    0.4600 C   0  0  0  0  0  0  0  0  0  0  0  0
   -3.0390   -0.3310    0.2360 C   0  0  0  0  0  0  0  0  0  0  0  0
   -1.9360    0.4680   -0.1010 C   0  0  0  0  0  0  0  0  0  0  0  0
    2.0630   -0.2870    0.6850 C   0  0  0  0  0  0  0  0  0  0  0  0
    0.3090    0.9360   -0.6210 C   0  0  0  0  0  0  0  0  0  0  0  0
    4.1310    0.7560   -0.7850 C   0  0  0  0  0  0  0  0  0  0  0  0
    2.7360    1.3730   -1.0630 C   0  0  0  0  0  0  0  0  0  0  0  0
    1.6980    0.3020   -0.6900 C   0  0  1  0  0  0  0  0  0  0  0  0
    1.7100   -0.8100   -1.7400 C   0  0  0  0  0  0  0  0  0  0  0  0
    0.6300   -1.8390   -1.3950 C   0  0  0  0  0  0  0  0  0  0  0  0
   -0.7290   -1.1400   -1.3190 C   0  0  0  0  0  0  0  0  0  0  0  0
   -0.6860   -0.0930   -0.2900 N   0  0  2  0  0  0  0  0  0  0  0  0
   -5.1880   -0.6990    0.7190 N   0  0  0  0  0  0  0  0  0  0  0  0
   -4.3760    1.6080    0.2620 N   0  0  0  0  0  0  0  0  0  0  0  0
   -2.1200    1.7790   -0.2230 N   0  0  0  0  0  0  0  0  0  0  0  0
    4.1820    0.7970    1.8790 O   0  0  0  0  0  0  0  0  0  0  0  0
    4.4900   -1.3780    0.7710 O   0  0  0  0  0  0  0  0  0  0  0  0
    3.8780   -0.0970    0.8170 S   0  0  0  0  0  0  0  0  0  0  0  0
   -3.4190    3.3880   -0.1570 H   0  0  0  0  0  0  0  0  0  0  0  0
   -5.0360   -2.8590    0.9620 H   0  0  0  0  0  0  0  0  0  0  0  0
   -2.5080   -2.5380    0.4070 H   0  0  0  0  0  0  0  0  0  0  0  0
    1.5650    0.2690    1.4800 H   0  0  0  0  0  0  0  0  0  0  0  0
    1.7880   -1.3410    0.7320 H   0  0  0  0  0  0  0  0  0  0  0  0
    0.3000    1.7100    0.1470 H   0  0  0  0  0  0  0  0  0  0  0  0
    0.0640    1.3800   -1.5860 H   0  0  0  0  0  0  0  0  0  0  0  0
    4.4000    0.0430   -1.5650 H   0  0  0  0  0  0  0  0  0  0  0  0
    4.8900    1.5320   -0.6950 H   0  0  0  0  0  0  0  0  0  0  0  0
    2.5920    2.2630   -0.4490 H   0  0  0  0  0  0  0  0  0  0  0  0
    2.6450    1.6300   -2.1190 H   0  0  0  0  0  0  0  0  0  0  0  0
    1.5070   -0.3850   -2.7230 H   0  0  0  0  0  0  0  0  0  0  0  0
    2.6860   -1.2950   -1.7460 H   0  0  0  0  0  0  0  0  0  0  0  0
    0.6010   -2.6090   -2.1660 H   0  0  0  0  0  0  0  0  0  0  0  0
    0.8580   -2.2970   -0.4320 H   0  0  0  0  0  0  0  0  0  0  0  0
   -0.9600   -0.6900   -2.2850 H   0  0  0  0  0  0  0  0  0  0  0  0
   -1.4990   -1.8680   -1.0650 H   0  0  0  0  0  0  0  0  0  0  0  0
   -6.1310   -0.5580    0.8940 H   0  0  0  0  0  0  0  0  0  0  0  0
 12 13  1  0  0  0  0
 11 12  1  0  0  0  0
 10 11  1  0  0  0  0
  9 10  1  0  0  0  0
 13 14  1  0  0  0  0
 20 21  2  0  0  0  0
  7 11  1  0  0  0  0
  8 11  1  0  0  0  0
  9 21  1  0  0  0  0
  7 21  1  0  0  0  0
 19 21  2  0  0  0  0
 14 15  1  0  0  0  0
  8 15  1  0  0  0  0
  6 15  1  0  0  0  0
  6 18  2  0  0  0  0
  5  6  1  0  0  0  0
  1 18  1  0  0  0  0
  4  5  1  0  0  0  0
  3  4  2  0  0  0  0
  2  5  2  0  0  0  0
  3 16  1  0  0  0  0
  1 17  2  0  0  0  0
  2 17  1  0  0  0  0
  2 16  1  0  0  0  0
  1 22  1  0  0  0  0
  3 23  1  0  0  0  0
  4 24  1  0  0  0  0
  7 25  1  0  0  0  0
  7 26  1  0  0  0  0
  8 27  1  0  0  0  0
  8 28  1  0  0  0  0
  9 29  1  0  0  0  0
  9 30  1  0  0  0  0
 10 31  1  0  0  0  0
 10 32  1  0  0  0  0
 12 33  1  0  0  0  0
 12 34  1  0  0  0  0
 13 35  1  0  0  0  0
 13 36  1  0  0  0  0
 14 37  1  0  0  0  0
 14 38  1  0  0  0  0
 16 39  1  0  0  0  0
M  END
> <OPENEYE_ISO_SMILES>
c1c[nH]c2c1c(ncn2)[N@]3CCC[C@]4(C3)CCS(=O)(=O)C4

> <OPENEYE_INCHI>
InChI=1S/C14H18N4O2S/c19-21(20)7-4-14(9-21)3-1-6-18(8-14)13-11-2-5-15-12(11)16-10-17-13/h2,5,10H,1,3-4,6-9H2,(H,15,16,17)/t14-/m1/s1

> <OPENEYE_INCHIKEY>
CIGPPCNTUJESTR-CQSZACIVSA-N

> <FORMULA>
C14H18N4O2S

$$$$
