DW7
  -OEChem-02242320023D

 86 89  0     1  0  0  0  0  0999 V2000
   -1.5470   -1.7400    1.4370 C   0  0  0  0  0  0  0  0  0  0  0  0
   -1.4900   -2.8260    1.9790 O   0  0  0  0  0  0  0  0  0  0  0  0
   -2.7350   -1.1250    1.2840 O   0  0  0  0  0  0  0  0  0  0  0  0
   -3.9060   -1.8180    1.7910 C   0  0  0  0  0  0  0  0  0  0  0  0
   -5.1340   -0.9840    1.5320 C   0  0  0  0  0  0  0  0  0  0  0  0
   -5.5530   -0.0600    2.4710 C   0  0  0  0  0  0  0  0  0  0  0  0
   -6.6790    0.7050    2.2340 C   0  0  0  0  0  0  0  0  0  0  0  0
   -7.3870    0.5470    1.0570 C   0  0  0  0  0  0  0  0  0  0  0  0
   -6.9680   -0.3760    0.1170 C   0  0  0  0  0  0  0  0  0  0  0  0
   -5.8390   -1.1380    0.3530 C   0  0  0  0  0  0  0  0  0  0  0  0
   -2.1700    2.4110   -2.4350 N   0  0  0  0  0  0  0  0  0  0  0  0
   -2.3940    1.1380   -3.1620 C   0  0  0  0  0  0  0  0  0  0  0  0
   -2.6990    0.0420   -2.1390 C   0  0  0  0  0  0  0  0  0  0  0  0
   -2.6580   -1.3240   -2.8270 C   0  0  0  0  0  0  0  0  0  0  0  0
   -1.7130   -2.1960   -2.1250 N   0  0  0  0  0  0  0  0  0  0  0  0
   -0.8170   -1.8030   -1.1900 C   0  0  0  0  0  0  0  0  0  0  0  0
   -0.1510   -2.9200   -0.8130 C   0  0  0  0  0  0  0  0  0  0  0  0
    0.9560   -3.0100    0.2050 C   0  0  0  0  0  0  0  0  0  0  0  0
    0.8730   -1.8180    1.1600 C   0  0  2  0  0  0  0  0  0  0  0  0
   -0.4200   -1.1490    0.9930 N   0  0  0  0  0  0  0  0  0  0  0  0
    1.9840   -0.8480    0.8520 C   0  0  0  0  0  0  0  0  0  0  0  0
    2.5550   -0.8800   -0.2170 O   0  0  0  0  0  0  0  0  0  0  0  0
   -0.6680   -3.9280   -1.5250 N   0  0  0  0  0  0  0  0  0  0  0  0
   -1.5910   -3.4660   -2.2920 N   0  0  0  0  0  0  0  0  0  0  0  0
    2.3820    2.8430   -0.0150 N   0  0  0  0  0  0  0  0  0  0  0  0
    1.6070    4.1000   -0.0780 C   0  0  1  0  0  0  0  0  0  0  0  0
    0.9560    4.2090   -1.4580 C   0  0  0  0  0  0  0  0  0  0  0  0
   -0.5410    3.9220   -1.3460 C   0  0  0  0  0  0  0  0  0  0  0  0
   -0.8680    2.6540   -2.0920 C   0  0  0  0  0  0  0  0  0  0  0  0
    0.0060    1.8650   -2.3820 O   0  0  0  0  0  0  0  0  0  0  0  0
    0.5250    4.0900    1.0040 C   0  0  0  0  0  0  0  0  0  0  0  0
   -0.3060    5.2440    0.8570 O   0  0  0  0  0  0  0  0  0  0  0  0
    2.3350    0.0710    1.8040 N   0  0  0  0  0  0  0  0  0  0  0  0
    3.3650    1.0490    1.3750 C   0  0  2  0  0  0  0  0  0  0  0  0
    2.7060    2.3970    1.2310 C   0  0  0  0  0  0  0  0  0  0  0  0
    2.4680    3.0740    2.2090 O   0  0  0  0  0  0  0  0  0  0  0  0
    3.9570    0.6180    0.0310 C   0  0  0  0  0  0  0  0  0  0  0  0
    4.6900   -0.7140    0.2000 C   0  0  0  0  0  0  0  0  0  0  0  0
    5.1230   -1.2350   -1.1710 C   0  0  0  0  0  0  0  0  0  0  0  0
    5.8560   -2.5680   -1.0020 C   0  0  0  0  0  0  0  0  0  0  0  0
    7.0900   -2.3620   -0.1210 C   0  0  0  0  0  0  0  0  0  0  0  0
    6.6570   -1.8410    1.2500 C   0  0  0  0  0  0  0  0  0  0  0  0
    5.9240   -0.5090    1.0810 C   0  0  0  0  0  0  0  0  0  0  0  0
   -4.0060   -2.7790    1.2860 H   0  0  0  0  0  0  0  0  0  0  0  0
   -3.7960   -1.9800    2.8630 H   0  0  0  0  0  0  0  0  0  0  0  0
   -5.0000    0.0640    3.3910 H   0  0  0  0  0  0  0  0  0  0  0  0
   -7.0070    1.4260    2.9680 H   0  0  0  0  0  0  0  0  0  0  0  0
   -8.2680    1.1440    0.8720 H   0  0  0  0  0  0  0  0  0  0  0  0
   -7.5210   -0.5010   -0.8020 H   0  0  0  0  0  0  0  0  0  0  0  0
   -5.5090   -1.8570   -0.3830 H   0  0  0  0  0  0  0  0  0  0  0  0
   -2.8900    3.0260   -2.2220 H   0  0  0  0  0  0  0  0  0  0  0  0
   -3.2390    1.2490   -3.8420 H   0  0  0  0  0  0  0  0  0  0  0  0
   -1.4990    0.8750   -3.7240 H   0  0  0  0  0  0  0  0  0  0  0  0
   -1.9550    0.0700   -1.3430 H   0  0  0  0  0  0  0  0  0  0  0  0
   -3.6900    0.2060   -1.7150 H   0  0  0  0  0  0  0  0  0  0  0  0
   -3.6510   -1.7730   -2.8040 H   0  0  0  0  0  0  0  0  0  0  0  0
   -2.3390   -1.2000   -3.8620 H   0  0  0  0  0  0  0  0  0  0  0  0
   -0.6630   -0.8000   -0.8200 H   0  0  0  0  0  0  0  0  0  0  0  0
    0.8540   -3.9360    0.7710 H   0  0  0  0  0  0  0  0  0  0  0  0
    1.9200   -3.0000   -0.3040 H   0  0  0  0  0  0  0  0  0  0  0  0
    0.9700   -2.1680    2.1880 H   0  0  0  0  0  0  0  0  0  0  0  0
   -0.4650   -0.2800    0.5640 H   0  0  0  0  0  0  0  0  0  0  0  0
    2.6450    2.3630   -0.8150 H   0  0  0  0  0  0  0  0  0  0  0  0
    2.2740    4.9490    0.0800 H   0  0  0  0  0  0  0  0  0  0  0  0
    1.1050    5.2140   -1.8510 H   0  0  0  0  0  0  0  0  0  0  0  0
    1.4160    3.4840   -2.1310 H   0  0  0  0  0  0  0  0  0  0  0  0
   -0.8110    3.8050   -0.2970 H   0  0  0  0  0  0  0  0  0  0  0  0
   -1.1020    4.7520   -1.7760 H   0  0  0  0  0  0  0  0  0  0  0  0
   -0.0810    3.1900    0.9030 H   0  0  0  0  0  0  0  0  0  0  0  0
    0.9950    4.1040    1.9880 H   0  0  0  0  0  0  0  0  0  0  0  0
   -1.0150    5.3030    1.5110 H   0  0  0  0  0  0  0  0  0  0  0  0
    1.9410    0.0820    2.6910 H   0  0  0  0  0  0  0  0  0  0  0  0
    4.1550    1.1030    2.1240 H   0  0  0  0  0  0  0  0  0  0  0  0
    3.1550    0.5020   -0.6980 H   0  0  0  0  0  0  0  0  0  0  0  0
    4.6570    1.3770   -0.3170 H   0  0  0  0  0  0  0  0  0  0  0  0
    4.0240   -1.4380    0.6710 H   0  0  0  0  0  0  0  0  0  0  0  0
    4.2440   -1.3820   -1.7980 H   0  0  0  0  0  0  0  0  0  0  0  0
    5.7890   -0.5120   -1.6410 H   0  0  0  0  0  0  0  0  0  0  0  0
    5.1910   -3.2920   -0.5320 H   0  0  0  0  0  0  0  0  0  0  0  0
    6.1650   -2.9390   -1.9790 H   0  0  0  0  0  0  0  0  0  0  0  0
    7.6130   -3.3110   -0.0010 H   0  0  0  0  0  0  0  0  0  0  0  0
    7.7560   -1.6380   -0.5910 H   0  0  0  0  0  0  0  0  0  0  0  0
    5.9910   -2.5650    1.7210 H   0  0  0  0  0  0  0  0  0  0  0  0
    7.5360   -1.6950    1.8780 H   0  0  0  0  0  0  0  0  0  0  0  0
    6.5890    0.2150    0.6110 H   0  0  0  0  0  0  0  0  0  0  0  0
    5.6150   -0.1370    2.0580 H   0  0  0  0  0  0  0  0  0  0  0  0
 29 30  2  0  0  0  0
 31 32  1  0  0  0  0
 26 31  1  0  0  0  0
 11 29  1  0  0  0  0
 28 29  1  0  0  0  0
 11 12  1  0  0  0  0
 27 28  1  0  0  0  0
 26 27  1  0  0  0  0
 25 26  1  0  0  0  0
 12 13  1  0  0  0  0
 13 14  1  0  0  0  0
 25 35  1  0  0  0  0
 14 15  1  0  0  0  0
 35 36  2  0  0  0  0
 34 35  1  0  0  0  0
 15 16  1  0  0  0  0
 15 24  1  0  0  0  0
 16 17  2  0  0  0  0
 34 37  1  0  0  0  0
 33 34  1  0  0  0  0
 21 22  2  0  0  0  0
 23 24  2  0  0  0  0
 37 38  1  0  0  0  0
 21 33  1  0  0  0  0
 19 21  1  0  0  0  0
 17 23  1  0  0  0  0
 17 18  1  0  0  0  0
 38 43  1  0  0  0  0
 42 43  1  0  0  0  0
 38 39  1  0  0  0  0
 18 19  1  0  0  0  0
 39 40  1  0  0  0  0
 19 20  1  0  0  0  0
  1 20  1  0  0  0  0
 41 42  1  0  0  0  0
 40 41  1  0  0  0  0
  1  3  1  0  0  0  0
  1  2  2  0  0  0  0
  3  4  1  0  0  0  0
  6  7  2  0  0  0  0
  5  6  1  0  0  0  0
  7  8  1  0  0  0  0
  4  5  1  0  0  0  0
  5 10  2  0  0  0  0
  8  9  2  0  0  0  0
  9 10  1  0  0  0  0
 39 78  1  0  0  0  0
 39 77  1  0  0  0  0
 26 64  1  0  0  0  0
 12 52  1  0  0  0  0
 12 53  1  0  0  0  0
 14 56  1  0  0  0  0
 14 57  1  0  0  0  0
 13 54  1  0  0  0  0
 13 55  1  0  0  0  0
 40 80  1  0  0  0  0
 40 79  1  0  0  0  0
 28 67  1  0  0  0  0
 28 68  1  0  0  0  0
 16 58  1  0  0  0  0
 18 59  1  0  0  0  0
 18 60  1  0  0  0  0
 31 69  1  0  0  0  0
 31 70  1  0  0  0  0
 19 61  1  0  0  0  0
 33 72  1  0  0  0  0
 34 73  1  0  0  0  0
 37 74  1  0  0  0  0
 37 75  1  0  0  0  0
 38 76  1  0  0  0  0
 43 85  1  0  0  0  0
 43 86  1  0  0  0  0
 42 84  1  0  0  0  0
 42 83  1  0  0  0  0
 41 82  1  0  0  0  0
 41 81  1  0  0  0  0
 25 63  1  0  0  0  0
 27 65  1  0  0  0  0
 27 66  1  0  0  0  0
 11 51  1  0  0  0  0
 32 71  1  0  0  0  0
 20 62  1  0  0  0  0
  4 44  1  0  0  0  0
  4 45  1  0  0  0  0
  6 46  1  0  0  0  0
  7 47  1  0  0  0  0
  8 48  1  0  0  0  0
  9 49  1  0  0  0  0
 10 50  1  0  0  0  0
M  END
> <OPENEYE_ISO_SMILES>
c1ccc(cc1)COC(=O)N[C@H]2Cc3cn(nn3)CCCNC(=O)CC[C@H](NC(=O)[C@@H](NC2=O)CC4CCCCC4)CO

> <OPENEYE_INCHI>
InChI=1S/C30H43N7O6/c38-19-23-12-13-27(39)31-14-7-15-37-18-24(35-36-37)17-26(34-30(42)43-20-22-10-5-2-6-11-22)29(41)33-25(28(40)32-23)16-21-8-3-1-4-9-21/h2,5-6,10-11,18,21,23,25-26,38H,1,3-4,7-9,12-17,19-20H2,(H,31,39)(H,32,40)(H,33,41)(H,34,42)/t23-,25-,26-/m0/s1

> <OPENEYE_INCHIKEY>
DATPOADEZAYIPB-RNXOBYDBSA-N

> <FORMULA>
C30H43N7O6

$$$$
