@<TRIPOS>MOLECULE
/home/pku/3cl/gett_pdb/5SS6/5SS6_mol2/ligand/5SS6_RL5.pdb
 35 36 0 0 0
SMALL
GASTEIGER

@<TRIPOS>ATOM
      1  C18      -46.9330  -29.4330    3.5050 C.ar  201  RL5201      0.0339
      2  C17      -45.6290  -29.4980    3.9720 C.ar  201  RL5201      0.1137
      3  C15      -46.9260  -29.0220    5.6080 C.ar  201  RL5201      0.0967
      4  C13      -49.1210  -28.9560    4.6000 C.3   201  RL5201      0.0397
      5  C12      -49.6200  -30.1610    5.3910 C.3   201  RL5201      0.0299
      6  C19      -44.3660  -29.8010    3.1710 C.2   201  RL5201      0.1387
      7  C01      -56.6000  -27.9960   12.1680 C.3   201  RL5201     -0.0496
      8  C02      -55.5700  -27.5000   11.1550 C.3   201  RL5201      0.0081
      9  C04      -54.5970  -28.5950    9.1280 C.ar  201  RL5201      0.1587
     10  C06      -52.5190  -29.4810    8.8120 C.ar  201  RL5201      0.0490
     11  C07      -52.8030  -29.2510    7.4590 C.ar  201  RL5201      0.0950
     12  C09      -51.8880  -29.5690    6.2810 C.2   201  RL5201      0.2523
     13  N03      -55.7620  -28.1390    9.8640 N.pl3 201  RL5201     -0.3237
     14  N05      -53.5000  -29.1170    9.6800 N.ar  201  RL5201     -0.2325
     15  N11      -50.4770  -29.8340    6.5150 N.am  201  RL5201     -0.3092
     16  N14      -47.6900  -29.1300    4.5460 N.ar  201  RL5201     -0.3347
     17  N16      -45.6750  -29.2410    5.2660 N.ar  201  RL5201     -0.2337
     18  O10      -52.3210  -29.5840    5.1780 O.2   201  RL5201     -0.2696
     19  O20      -43.4430  -30.4740    3.6980 O.co2 201  RL5201     -0.3019
     20  O21      -44.2380  -29.3760    1.9920 O.co2 201  RL5201     -0.8430
     21  S08      -54.3580  -28.5730    7.4510 S.2   201  RL5201     -0.0478
     22 H181      -47.2630  -29.5940    2.4870 H     201  RL5201      0.0832
     23 H151      -47.3010  -28.8040    6.6070 H     201  RL5201      0.1029
     24 H131      -49.5600  -28.9110    3.5980 H     201  RL5201      0.0507
     25 H132      -49.3480  -28.0370    5.1280 H     201  RL5201      0.0507
     26 H121      -48.7810  -30.7590    5.7370 H     201  RL5201      0.0480
     27 H122      -50.1940  -30.7540    4.7130 H     201  RL5201      0.0480
     28 H011      -56.4340  -27.5040   13.1220 H     201  RL5201      0.0245
     29 H012      -56.4960  -29.0710   12.2930 H     201  RL5201      0.0245
     30 H013      -57.5990  -27.7680   11.8110 H     201  RL5201      0.0245
     31 H021      -55.6710  -26.4260   11.0380 H     201  RL5201      0.0459
     32 H022      -54.5720  -27.7230   11.5200 H     201  RL5201      0.0459
     33 H061      -51.5870  -29.9160    9.1350 H     201  RL5201      0.0843
     34 H031      -56.6810  -28.2750    9.4910 H     201  RL5201      0.1479
     35 H111      -50.1010  -29.8410    7.4490 H     201  RL5201      0.1491
@<TRIPOS>UNITY_ATOM_ATTR
20 1
charge -1
@<TRIPOS>BOND
     1    20     6   ar
     2    22     1    1
     3     6    19   ar
     4     6     2    1
     5     1     2   ar
     6     1    16   ar
     7    24     4    1
     8     2    17   ar
     9    16     4    1
    10    16     3   ar
    11     4    25    1
    12     4     5    1
    13    27     5    1
    14    18    12    2
    15    17     3   ar
    16     5    26    1
    17     5    15    1
    18     3    23    1
    19    12    15   am
    20    12    11    1
    21    15    35    1
    22    21    11   ar
    23    21     9   ar
    24    11    10   ar
    25    10    33    1
    26    10    14   ar
    27     9    14   ar
    28     9    13    1
    29    34    13    1
    30    13     8    1
    31    31     8    1
    32     8    32    1
    33     8     7    1
    34    30     7    1
    35     7    29    1
    36     7    28    1
