RM6
  -OEChem-02242320043D

 37 39  0     0  0  0  0  0  0999 V2000
   -2.8820    1.4840   -0.3240 C   0  0  0  0  0  0  0  0  0  0  0  0
   -4.1810    1.0100   -0.1050 C   0  0  0  0  0  0  0  0  0  0  0  0
   -6.5980    0.3600    0.2620 C   0  0  0  0  0  0  0  0  0  0  0  0
   -5.7770   -0.6690    0.3580 C   0  0  0  0  0  0  0  0  0  0  0  0
   -4.3770   -0.3530    0.1550 C   0  0  0  0  0  0  0  0  0  0  0  0
   -3.2380   -1.1860    0.1840 C   0  0  0  0  0  0  0  0  0  0  0  0
   -1.9910   -0.6310   -0.0440 C   0  0  0  0  0  0  0  0  0  0  0  0
   -0.7930   -1.4960   -0.0160 C   0  0  0  0  0  0  0  0  0  0  0  0
    6.1780    1.4130    0.1340 C   0  0  0  0  0  0  0  0  0  0  0  0
    5.4140    0.4270   -0.7110 C   0  0  0  0  0  0  0  0  0  0  0  0
    4.8480   -0.6790    0.1810 C   0  0  0  0  0  0  0  0  0  0  0  0
    4.1510   -1.8060   -0.6000 C   0  0  0  0  0  0  0  0  0  0  0  0
    2.8590   -0.9790   -0.4860 C   0  0  0  0  0  0  0  0  0  0  0  0
    3.4690   -0.3460    0.7750 C   0  0  0  0  0  0  0  0  0  0  0  0
    1.6140   -1.8230   -0.2080 C   0  0  0  0  0  0  0  0  0  0  0  0
    0.4270   -0.9660   -0.2360 N   0  0  0  0  0  0  0  0  0  0  0  0
   -1.8540    0.6720   -0.2940 N   0  0  0  0  0  0  0  0  0  0  0  0
    6.7660    2.4750   -0.4390 O   0  0  0  0  0  0  0  0  0  0  0  0
   -0.9070   -2.6860    0.2060 O   0  0  0  0  0  0  0  0  0  0  0  0
    6.2610    1.2480    1.3280 O   0  0  0  0  0  0  0  0  0  0  0  0
   -5.7290    1.8420   -0.0900 S   0  0  0  0  0  0  0  0  0  0  0  0
   -2.7250    2.5330   -0.5260 H   0  0  0  0  0  0  0  0  0  0  0  0
   -7.6690    0.2980    0.3850 H   0  0  0  0  0  0  0  0  0  0  0  0
   -6.1220   -1.6710    0.5700 H   0  0  0  0  0  0  0  0  0  0  0  0
   -3.3390   -2.2430    0.3810 H   0  0  0  0  0  0  0  0  0  0  0  0
    4.5960    0.9390   -1.2180 H   0  0  0  0  0  0  0  0  0  0  0  0
    6.0820   -0.0110   -1.4530 H   0  0  0  0  0  0  0  0  0  0  0  0
    5.5670   -1.0390    0.9170 H   0  0  0  0  0  0  0  0  0  0  0  0
    4.5110   -1.9140   -1.6230 H   0  0  0  0  0  0  0  0  0  0  0  0
    4.1130   -2.7520   -0.0610 H   0  0  0  0  0  0  0  0  0  0  0  0
    2.7180   -0.2740   -1.3060 H   0  0  0  0  0  0  0  0  0  0  0  0
    3.2440   -0.8940    1.6910 H   0  0  0  0  0  0  0  0  0  0  0  0
    3.2780    0.7240    0.8630 H   0  0  0  0  0  0  0  0  0  0  0  0
    1.5220   -2.5970   -0.9710 H   0  0  0  0  0  0  0  0  0  0  0  0
    1.7030   -2.2890    0.7730 H   0  0  0  0  0  0  0  0  0  0  0  0
    0.5180   -0.0160   -0.4130 H   0  0  0  0  0  0  0  0  0  0  0  0
    7.2450    3.0790    0.1440 H   0  0  0  0  0  0  0  0  0  0  0  0
  9 20  2  0  0  0  0
  9 18  1  0  0  0  0
  9 10  1  0  0  0  0
 10 11  1  0  0  0  0
 11 12  1  0  0  0  0
 11 14  1  0  0  0  0
 12 13  1  0  0  0  0
 13 14  1  0  0  0  0
 13 15  1  0  0  0  0
 15 16  1  0  0  0  0
  8 19  2  0  0  0  0
  8 16  1  0  0  0  0
  7  8  1  0  0  0  0
  6  7  2  0  0  0  0
  7 17  1  0  0  0  0
  5  6  1  0  0  0  0
  1 17  2  0  0  0  0
  4  5  1  0  0  0  0
  2  5  2  0  0  0  0
  3  4  2  0  0  0  0
  1  2  1  0  0  0  0
  2 21  1  0  0  0  0
  3 21  1  0  0  0  0
  1 22  1  0  0  0  0
  3 23  1  0  0  0  0
  4 24  1  0  0  0  0
  6 25  1  0  0  0  0
 10 26  1  0  0  0  0
 10 27  1  0  0  0  0
 11 28  1  0  0  0  0
 12 29  1  0  0  0  0
 12 30  1  0  0  0  0
 13 31  1  0  0  0  0
 14 32  1  0  0  0  0
 14 33  1  0  0  0  0
 15 34  1  0  0  0  0
 15 35  1  0  0  0  0
 16 36  1  0  0  0  0
 18 37  1  0  0  0  0
M  END
> <OPENEYE_ISO_SMILES>
c1csc2c1cc(nc2)C(=O)NCC3CC(C3)CC(=O)O

> <OPENEYE_INCHI>
InChI=1S/C15H16N2O3S/c18-14(19)5-9-3-10(4-9)7-17-15(20)12-6-11-1-2-21-13(11)8-16-12/h1-2,6,8-10H,3-5,7H2,(H,17,20)(H,18,19)/t9-,10-

> <OPENEYE_INCHIKEY>
BFCQGZXJYIJBQN-MGCOHNPYSA-N

> <FORMULA>
C15H16N2O3S

$$$$
