T4M
  -OEChem-02242320043D

 31 32  0     1  0  0  0  0  0999 V2000
    0.0490   -0.4500    0.2440 C   0  0  0  0  0  0  0  0  0  0  0  0
   -0.0180   -1.8090    0.2670 C   0  0  0  0  0  0  0  0  0  0  0  0
    1.1220   -2.5880    0.0740 C   0  0  0  0  0  0  0  0  0  0  0  0
    2.3350   -2.0120   -0.1430 C   0  0  0  0  0  0  0  0  0  0  0  0
    2.4450   -0.6110   -0.1730 C   0  0  0  0  0  0  0  0  0  0  0  0
    3.7480    1.3800   -0.4180 C   0  0  0  0  0  0  0  0  0  0  0  0
    1.2860    0.1810    0.0230 C   0  0  0  0  0  0  0  0  0  0  0  0
   -2.3660   -0.3930    0.0150 N   0  0  0  0  0  0  0  0  0  0  0  0
   -1.3370    0.7240    1.9320 C   0  0  0  0  0  0  0  0  0  0  0  0
   -3.4930    1.4600   -0.4500 O   0  0  0  0  0  0  0  0  0  0  0  0
   -1.1960    0.3740    0.4490 C   0  0  1  0  0  0  0  0  0  0  0  0
    2.6090    2.1580   -0.2250 C   0  0  0  0  0  0  0  0  0  0  0  0
    1.3950    1.5820   -0.0070 C   0  0  0  0  0  0  0  0  0  0  0  0
   -3.4690    0.2480   -0.4190 C   0  0  0  0  0  0  0  0  0  0  0  0
   -4.6730   -0.5410   -0.8660 C   0  0  0  0  0  0  0  0  0  0  0  0
    3.6810    0.0200   -0.3950 C   0  0  0  0  0  0  0  0  0  0  0  0
   -0.9690   -2.2920    0.4370 H   0  0  0  0  0  0  0  0  0  0  0  0
    1.0400   -3.6640    0.0970 H   0  0  0  0  0  0  0  0  0  0  0  0
    3.2100   -2.6280   -0.2910 H   0  0  0  0  0  0  0  0  0  0  0  0
    4.6990    1.8620   -0.5880 H   0  0  0  0  0  0  0  0  0  0  0  0
   -2.3460   -1.3630    0.0390 H   0  0  0  0  0  0  0  0  0  0  0  0
   -1.4080   -0.1930    2.5170 H   0  0  0  0  0  0  0  0  0  0  0  0
   -0.4670    1.2950    2.2550 H   0  0  0  0  0  0  0  0  0  0  0  0
   -2.2380    1.3200    2.0800 H   0  0  0  0  0  0  0  0  0  0  0  0
   -1.1250    1.2910   -0.1360 H   0  0  0  0  0  0  0  0  0  0  0  0
    2.6900    3.2350   -0.2480 H   0  0  0  0  0  0  0  0  0  0  0  0
    0.5200    2.1980    0.1400 H   0  0  0  0  0  0  0  0  0  0  0  0
   -4.4650   -1.6070   -0.7680 H   0  0  0  0  0  0  0  0  0  0  0  0
   -5.5300   -0.2790   -0.2460 H   0  0  0  0  0  0  0  0  0  0  0  0
   -4.8930   -0.3080   -1.9080 H   0  0  0  0  0  0  0  0  0  0  0  0
    4.5720   -0.5700   -0.5460 H   0  0  0  0  0  0  0  0  0  0  0  0
  9 11  1  0  0  0  0
  8 11  1  0  0  0  0
  8 14  1  0  0  0  0
 10 14  2  0  0  0  0
 14 15  1  0  0  0  0
  1 11  1  0  0  0  0
  1  2  2  0  0  0  0
  2  3  1  0  0  0  0
  3  4  2  0  0  0  0
  4  5  1  0  0  0  0
  5 16  2  0  0  0  0
  6 16  1  0  0  0  0
  6 12  2  0  0  0  0
 12 13  1  0  0  0  0
  7 13  2  0  0  0  0
  1  7  1  0  0  0  0
  5  7  1  0  0  0  0
  2 17  1  0  0  0  0
  3 18  1  0  0  0  0
  4 19  1  0  0  0  0
  6 20  1  0  0  0  0
  8 21  1  0  0  0  0
  9 22  1  0  0  0  0
  9 23  1  0  0  0  0
  9 24  1  0  0  0  0
 11 25  1  0  0  0  0
 12 26  1  0  0  0  0
 13 27  1  0  0  0  0
 15 28  1  0  0  0  0
 15 29  1  0  0  0  0
 15 30  1  0  0  0  0
 16 31  1  0  0  0  0
M  END
> <OPENEYE_ISO_SMILES>
C[C@@H](c1cccc2c1cccc2)NC(=O)C

> <OPENEYE_INCHI>
InChI=1S/C14H15NO/c1-10(15-11(2)16)13-9-5-7-12-6-3-4-8-14(12)13/h3-10H,1-2H3,(H,15,16)/t10-/m0/s1

> <OPENEYE_INCHIKEY>
RFWQKLFRYNTMOB-JTQLQIEISA-N

> <FORMULA>
C14H15NO

$$$$
