@<TRIPOS>MOLECULE
/home/pku/3cl/gett_pdb/5SS1/5SS1_mol2/ligand/5SS1_RJS.pdb
 35 37 0 0 0
SMALL
GASTEIGER

@<TRIPOS>ATOM
      1  C18      -48.7970  -28.5360    4.3220 C.ar  201  RJS201     -0.0583
      2  C16      -47.9990  -28.8300    6.5330 C.ar  201  RJS201      0.0298
      3  C17      -49.0270  -28.5350    5.6640 C.ar  201  RJS201     -0.0435
      4  C13      -44.6610  -29.6220    5.8490 C.ar  201  RJS201      0.0625
      5  C12      -45.1690  -29.4450    4.5810 C.ar  201  RJS201      0.0832
      6  C10      -44.3370  -29.5490    3.3270 C.2   201  RJS201      0.2663
      7  C20      -46.5140  -29.1190    4.7360 C.ar  201  RJS201      0.0790
      8  C19      -47.5640  -28.8160    3.8380 C.ar  201  RJS201     -0.0354
      9  C02      -44.9130  -33.5160   -1.0020 C.ar  201  RJS201      0.1376
     10  C03      -44.0000  -32.4930   -0.8220 C.ar  201  RJS201     -0.0206
     11  C04      -44.1870  -31.5730    0.1920 C.ar  201  RJS201     -0.0220
     12  C05      -43.1890  -30.4450    0.3650 C.3   201  RJS201      0.1099
     13  C21      -45.2790  -31.6600    1.0260 C.ar  201  RJS201     -0.0557
     14  C22      -46.1820  -32.6760    0.8530 C.ar  201  RJS201     -0.0447
     15  C23      -46.0030  -33.6010   -0.1560 C.ar  201  RJS201      0.0530
     16  F01      -44.7400  -34.4320   -1.9990 F     201  RJS201     -0.2043
     17  N09      -43.2520  -30.5000    3.2990 N.am  201  RJS201     -0.1855
     18  N14      -45.6060  -29.4230    6.7520 N.ar  201  RJS201     -0.1740
     19  N15      -46.7490  -29.1150    6.0300 N.ar  201  RJS201     -0.2391
     20  O07      -41.3290  -29.4510    1.9860 O.2   201  RJS201     -0.1548
     21  O08      -41.3680  -31.7320    1.9470 O.2   201  RJS201     -0.1548
     22  O11      -44.5520  -28.8210    2.4130 O.2   201  RJS201     -0.2685
     23  S06      -42.2650  -30.5760    1.9150 S.O2  201  RJS201      0.0495
     24 BR24      -47.3010  -35.0170   -0.3760 Br    201  RJS201     -0.0473
     25 H181      -49.5990  -28.3050    3.6400 H     201  RJS201      0.0619
     26 H161      -48.1680  -28.8320    7.5980 H     201  RJS201      0.0830
     27 H171      -50.0180  -28.3090    6.0330 H     201  RJS201      0.0633
     28 H131      -43.6630  -29.8690    6.0780 H     201  RJS201      0.0856
     29 H191      -47.3970  -28.8060    2.7760 H     201  RJS201      0.0639
     30 H031      -43.1390  -32.4040   -1.4680 H     201  RJS201      0.0650
     31 H051      -43.7270  -29.5010    0.3480 H     201  RJS201      0.0568
     32 H052      -42.4940  -30.4620   -0.4580 H     201  RJS201      0.0568
     33 H211      -45.4290  -30.9510    1.8220 H     201  RJS201      0.0621
     34 H221      -47.0270  -32.7330    1.5180 H     201  RJS201      0.0630
     35 H091      -43.0560  -31.0900    4.0890 H     201  RJS201      0.1765
@<TRIPOS>BOND
     1    16     9    1
     2    30    10    1
     3     9    10   ar
     4     9    15   ar
     5    10    11   ar
     6    32    12    1
     7    24    15    1
     8    15    14   ar
     9    11    12    1
    10    11    13   ar
    11    31    12    1
    12    12    23    1
    13    14    13   ar
    14    14    34    1
    15    13    33    1
    16    23    21    2
    17    23    20    2
    18    23    17    1
    19    22     6    2
    20    29     8    1
    21    17     6   am
    22    17    35    1
    23     6     5    1
    24    25     1    1
    25     8     1   ar
    26     8     7   ar
    27     1     3   ar
    28     5     7   ar
    29     5     4   ar
    30     7    19   ar
    31     3    27    1
    32     3     2   ar
    33     4    28    1
    34     4    18   ar
    35    19     2   ar
    36    19    18   ar
    37     2    26    1
