GT4
  -OEChem-02242320023D

 24 24  0     0  0  0  0  0  0999 V2000
   -0.5990   -0.9470   -0.3970 N   0  0  0  0  0  0  0  0  0  0  0  0
    0.7340   -0.5480   -0.2280 C   0  0  0  0  0  0  0  0  0  0  0  0
    1.6930   -1.4740    0.1570 C   0  0  0  0  0  0  0  0  0  0  0  0
    3.0060   -1.0810    0.3230 C   0  0  0  0  0  0  0  0  0  0  0  0
    3.3670    0.2410    0.1040 C   0  0  0  0  0  0  0  0  0  0  0  0
    2.4090    1.1670   -0.2820 C   0  0  0  0  0  0  0  0  0  0  0  0
   -5.2890    0.1620    0.1800 C   0  0  0  0  0  0  0  0  0  0  0  0
   -3.9010    0.4980    0.2280 O   0  0  0  0  0  0  0  0  0  0  0  0
   -3.0320   -0.5670   -0.1620 C   0  0  0  0  0  0  0  0  0  0  0  0
   -1.6000   -0.1040   -0.0740 C   0  0  0  0  0  0  0  0  0  0  0  0
   -1.3490    1.0260    0.2870 O   0  0  0  0  0  0  0  0  0  0  0  0
    1.0970    0.7740   -0.4530 C   0  0  0  0  0  0  0  0  0  0  0  0
    4.6610    0.6280    0.2660 O   0  0  0  0  0  0  0  0  0  0  0  0
   -0.8000   -1.8270   -0.7490 H   0  0  0  0  0  0  0  0  0  0  0  0
    1.4120   -2.5030    0.3290 H   0  0  0  0  0  0  0  0  0  0  0  0
    3.7520   -1.8020    0.6230 H   0  0  0  0  0  0  0  0  0  0  0  0
    2.6920    2.1950   -0.4560 H   0  0  0  0  0  0  0  0  0  0  0  0
   -5.4840   -0.6750    0.8510 H   0  0  0  0  0  0  0  0  0  0  0  0
   -5.8820    1.0220    0.4910 H   0  0  0  0  0  0  0  0  0  0  0  0
   -5.5600   -0.1190   -0.8380 H   0  0  0  0  0  0  0  0  0  0  0  0
   -3.1790   -1.4190    0.5020 H   0  0  0  0  0  0  0  0  0  0  0  0
   -3.2560   -0.8620   -1.1870 H   0  0  0  0  0  0  0  0  0  0  0  0
    0.3520    1.4950   -0.7530 H   0  0  0  0  0  0  0  0  0  0  0  0
    5.1970    0.5540   -0.5350 H   0  0  0  0  0  0  0  0  0  0  0  0
  7  8  1  0  0  0  0
  6 12  2  0  0  0  0
  5  6  1  0  0  0  0
  2 12  1  0  0  0  0
  5 13  1  0  0  0  0
  4  5  2  0  0  0  0
  8  9  1  0  0  0  0
 10 11  2  0  0  0  0
  1  2  1  0  0  0  0
  2  3  2  0  0  0  0
  1 10  1  0  0  0  0
  9 10  1  0  0  0  0
  3  4  1  0  0  0  0
  1 14  1  0  0  0  0
  3 15  1  0  0  0  0
  4 16  1  0  0  0  0
  6 17  1  0  0  0  0
  7 18  1  0  0  0  0
  7 19  1  0  0  0  0
  7 20  1  0  0  0  0
  9 21  1  0  0  0  0
  9 22  1  0  0  0  0
 12 23  1  0  0  0  0
 13 24  1  0  0  0  0
M  END
> <OPENEYE_ISO_SMILES>
COCC(=O)Nc1ccc(cc1)O

> <OPENEYE_INCHI>
InChI=1S/C9H11NO3/c1-13-6-9(12)10-7-2-4-8(11)5-3-7/h2-5,11H,6H2,1H3,(H,10,12)

> <OPENEYE_INCHIKEY>
NSZUGQROUUTGGI-UHFFFAOYSA-N

> <FORMULA>
C9H11NO3

$$$$
