WF5
  -OEChem-02242320043D

 74 75  0     1  0  0  0  0  0999 V2000
    9.6880    0.0380    0.5270 C   0  0  0  0  0  0  0  0  0  0  0  0
    8.2380    0.6910   -1.2640 C   0  0  0  0  0  0  0  0  0  0  0  0
    8.5900   -0.3170    1.2910 C   0  0  0  0  0  0  0  0  0  0  0  0
    7.3150   -0.1690    0.7800 C   0  0  0  0  0  0  0  0  0  0  0  0
    7.1360    0.3360   -0.5000 C   0  0  0  0  0  0  0  0  0  0  0  0
    4.7440    0.7790    1.1040 C   0  0  0  0  0  0  0  0  0  0  0  0
    5.0180   -1.4910    0.0970 C   0  0  0  0  0  0  0  0  0  0  0  0
    3.4860    0.1710   -0.9670 C   0  0  0  0  0  0  0  0  0  0  0  0
    1.1510   -0.2370   -0.6830 C   0  0  0  0  0  0  0  0  0  0  0  0
   -1.2660   -0.4860   -0.5080 C   0  0  1  0  0  0  0  0  0  0  0  0
   -2.9470   -1.3720   -2.1300 C   0  0  0  0  0  0  0  0  0  0  0  0
   -2.7140   -0.2380   -3.1310 C   0  0  0  0  0  0  0  0  0  0  0  0
   -3.4150   -2.6230   -2.8770 C   0  0  0  0  0  0  0  0  0  0  0  0
   -4.3840    0.3200    1.5580 C   0  0  1  0  0  0  0  0  0  0  0  0
   -5.4110    1.3920    1.1890 C   0  0  0  0  0  0  0  0  0  0  0  0
   -3.8010    2.6590   -0.2440 C   0  0  0  0  0  0  0  0  0  0  0  0
   -5.7180    3.8370    0.6280 C   0  0  0  0  0  0  0  0  0  0  0  0
   -5.1080   -0.9850    1.8960 C   0  0  1  0  0  0  0  0  0  0  0  0
   -1.9080   -0.7370    1.7490 O   0  0  0  0  0  0  0  0  0  0  0  0
    0.9950    0.2350   -1.7910 O   0  0  0  0  0  0  0  0  0  0  0  0
    9.5110    0.5470   -0.7480 C   0  0  0  0  0  0  0  0  0  0  0  0
    4.8020   -0.0070   -0.2070 C   0  0  0  0  0  0  0  0  0  0  0  0
   -1.6410   -1.6760   -1.3930 C   0  0  0  0  0  0  0  0  0  0  0  0
   -2.2400   -0.3840    0.6370 C   0  0  0  0  0  0  0  0  0  0  0  0
   -4.6970    2.7280    0.9730 C   0  0  1  0  0  0  0  0  0  0  0  0
   -5.7010    3.8130   -0.9160 C   0  0  0  0  0  0  0  0  0  0  0  0
    0.0880   -0.6770    0.0190 N   0  0  0  0  0  0  0  0  0  0  0  0
   -3.4810    0.0980    0.4260 N   0  0  0  0  0  0  0  0  0  0  0  0
   -4.3850    3.2780   -1.2840 N   0  0  0  0  0  0  0  0  0  0  0  0
    5.8830    0.4770   -1.0060 O   0  0  0  0  0  0  0  0  0  0  0  0
    2.3870   -0.3220   -0.1550 O   0  0  0  0  0  0  0  0  0  0  0  0
   -2.7120    2.1260   -0.2740 O   0  0  0  0  0  0  0  0  0  0  0  0
   -6.0720   -0.7430    2.9230 O   0  0  0  0  0  0  0  0  0  0  0  0
   11.2890   -0.1480    1.1720 Cl  0  0  0  0  0  0  0  0  0  0  0  0
   -5.9460   -1.6120    0.4150 S   0  0  0  0  0  0  0  0  0  0  0  0
    8.1010    1.0840   -2.2610 H   0  0  0  0  0  0  0  0  0  0  0  0
    8.7300   -0.7100    2.2870 H   0  0  0  0  0  0  0  0  0  0  0  0
    6.4580   -0.4470    1.3760 H   0  0  0  0  0  0  0  0  0  0  0  0
    5.7500    0.8830    1.5100 H   0  0  0  0  0  0  0  0  0  0  0  0
    4.3240    1.7680    0.9160 H   0  0  0  0  0  0  0  0  0  0  0  0
    4.1160    0.2480    1.8190 H   0  0  0  0  0  0  0  0  0  0  0  0
    5.0910   -2.0470   -0.8370 H   0  0  0  0  0  0  0  0  0  0  0  0
    5.9390   -1.6150    0.6660 H   0  0  0  0  0  0  0  0  0  0  0  0
    4.1770   -1.8690    0.6800 H   0  0  0  0  0  0  0  0  0  0  0  0
    3.3320    1.2280   -1.1840 H   0  0  0  0  0  0  0  0  0  0  0  0
    3.5270   -0.3900   -1.9010 H   0  0  0  0  0  0  0  0  0  0  0  0
   -1.3010    0.4300   -1.0970 H   0  0  0  0  0  0  0  0  0  0  0  0
   -3.7090   -1.0710   -1.4110 H   0  0  0  0  0  0  0  0  0  0  0  0
   -3.6590    0.0260   -3.6070 H   0  0  0  0  0  0  0  0  0  0  0  0
   -2.3150    0.6310   -2.6090 H   0  0  0  0  0  0  0  0  0  0  0  0
   -2.0040   -0.5640   -3.8910 H   0  0  0  0  0  0  0  0  0  0  0  0
   -2.6520   -2.9240   -3.5960 H   0  0  0  0  0  0  0  0  0  0  0  0
   -3.5800   -3.4310   -2.1640 H   0  0  0  0  0  0  0  0  0  0  0  0
   -4.3450   -2.4060   -3.4020 H   0  0  0  0  0  0  0  0  0  0  0  0
   -3.8080    0.6500    2.4230 H   0  0  0  0  0  0  0  0  0  0  0  0
   -5.9250    1.1030    0.2730 H   0  0  0  0  0  0  0  0  0  0  0  0
   -6.1360    1.4940    1.9970 H   0  0  0  0  0  0  0  0  0  0  0  0
   -6.7080    3.5890    1.0110 H   0  0  0  0  0  0  0  0  0  0  0  0
   -5.3870    4.8040    1.0080 H   0  0  0  0  0  0  0  0  0  0  0  0
   -4.3840   -1.7220    2.2440 H   0  0  0  0  0  0  0  0  0  0  0  0
   10.3690    0.8240   -1.3420 H   0  0  0  0  0  0  0  0  0  0  0  0
   -0.8470   -1.8550   -2.1180 H   0  0  0  0  0  0  0  0  0  0  0  0
   -1.7730   -2.5630   -0.7720 H   0  0  0  0  0  0  0  0  0  0  0  0
   -4.1200    3.0000    1.8570 H   0  0  0  0  0  0  0  0  0  0  0  0
   -6.4910    3.1640   -1.2920 H   0  0  0  0  0  0  0  0  0  0  0  0
   -5.8230    4.8220   -1.3100 H   0  0  0  0  0  0  0  0  0  0  0  0
    0.2190   -1.1190    0.8720 H   0  0  0  0  0  0  0  0  0  0  0  0
   -3.7760    0.2990   -0.4760 H   0  0  0  0  0  0  0  0  0  0  0  0
   -3.9870    3.3620   -2.1650 H   0  0  0  0  0  0  0  0  0  0  0  0
   -6.7480   -0.0950    2.6820 H   0  0  0  0  0  0  0  0  0  0  0  0
   -5.0030   -2.1480   -0.5030 O   0  0  0  0  0  0  0  0  0  0  0  0
   -6.7240   -2.8260    0.9040 O   0  0  0  0  0  0  0  0  0  0  0  0
   -6.9500   -0.7020   -0.0130 O   0  0  0  0  0  0  0  0  0  0  0  0
   -7.2300   -3.2730    0.2130 H   0  0  0  0  0  0  0  0  0  0  0  0
 16 32  2  0  0  0  0
 16 29  1  0  0  0  0
 16 25  1  0  0  0  0
 18 35  1  0  0  0  0
 26 29  1  0  0  0  0
 15 25  1  0  0  0  0
 14 15  1  0  0  0  0
 17 25  1  0  0  0  0
 18 33  1  0  0  0  0
 14 18  1  0  0  0  0
 14 28  1  0  0  0  0
 17 26  1  0  0  0  0
 24 28  1  0  0  0  0
  9 20  2  0  0  0  0
 10 24  1  0  0  0  0
 19 24  2  0  0  0  0
 10 27  1  0  0  0  0
 10 23  1  0  0  0  0
  9 27  1  0  0  0  0
  9 31  1  0  0  0  0
 11 13  1  0  0  0  0
  8 31  1  0  0  0  0
  8 22  1  0  0  0  0
  7 22  1  0  0  0  0
 22 30  1  0  0  0  0
  5 30  1  0  0  0  0
 11 23  1  0  0  0  0
  6 22  1  0  0  0  0
  2  5  2  0  0  0  0
  2 21  1  0  0  0  0
 11 12  1  0  0  0  0
  4  5  1  0  0  0  0
  1 21  2  0  0  0  0
  3  4  2  0  0  0  0
  1  3  1  0  0  0  0
  1 34  1  0  0  0  0
  2 36  1  0  0  0  0
  3 37  1  0  0  0  0
  4 38  1  0  0  0  0
  6 39  1  0  0  0  0
  6 40  1  0  0  0  0
  6 41  1  0  0  0  0
  7 42  1  0  0  0  0
  7 43  1  0  0  0  0
  7 44  1  0  0  0  0
  8 45  1  0  0  0  0
  8 46  1  0  0  0  0
 10 47  1  0  0  0  0
 11 48  1  0  0  0  0
 12 49  1  0  0  0  0
 12 50  1  0  0  0  0
 12 51  1  0  0  0  0
 13 52  1  0  0  0  0
 13 53  1  0  0  0  0
 13 54  1  0  0  0  0
 14 55  1  0  0  0  0
 15 56  1  0  0  0  0
 15 57  1  0  0  0  0
 17 58  1  0  0  0  0
 17 59  1  0  0  0  0
 18 60  1  0  0  0  0
 21 61  1  0  0  0  0
 23 62  1  0  0  0  0
 23 63  1  0  0  0  0
 25 64  1  0  0  0  0
 26 65  1  0  0  0  0
 26 66  1  0  0  0  0
 27 67  1  0  0  0  0
 28 68  1  0  0  0  0
 29 69  1  0  0  0  0
 33 70  1  0  0  0  0
 35 71  2  0  0  0  0
 35 72  1  0  0  0  0
 35 73  2  0  0  0  0
 72 74  1  0  0  0  0
M  END
> <OPENEYE_ISO_SMILES>
CC(C)C[C@@H](C(=O)N[C@@H](C[C@@H]1CCNC1=O)[C@@H](O)S(=O)(=O)O)NC(=O)OCC(C)(C)Oc2ccc(cc2)Cl

> <OPENEYE_INCHI>
InChI=1S/C24H36ClN3O9S/c1-14(2)11-18(28-23(32)36-13-24(3,4)37-17-7-5-16(25)6-8-17)21(30)27-19(22(31)38(33,34)35)12-15-9-10-26-20(15)29/h5-8,14-15,18-19,22,31H,9-13H2,1-4H3,(H,26,29)(H,27,30)(H,28,32)(H,33,34,35)/t15-,18-,19-,22-/m0/s1

> <OPENEYE_INCHIKEY>
JMICFZXJVQQEHE-BCSOYYNPSA-N

> <FORMULA>
C24H36ClN3O9S

$$$$
