HV2
  -OEChem-02242320023D

 13 13  0     0  0  0  0  0  0999 V2000
   -1.4200    0.3830    0.0230 C   0  0  0  0  0  0  0  0  0  0  0  0
   -0.5090   -0.2300    1.0890 C   0  0  0  0  0  0  0  0  0  0  0  0
   -0.5300   -0.2110   -1.0720 C   0  0  0  0  0  0  0  0  0  0  0  0
   -2.7400   -0.1630    0.0310 O   0  0  0  0  0  0  0  0  0  0  0  0
    0.9200    0.0010   -0.0030 S   0  0  0  0  0  0  0  0  0  0  0  0
    1.4080    1.3360    0.0040 O   0  0  0  0  0  0  0  0  0  0  0  0
    1.7860   -1.1260   -0.0220 O   0  0  0  0  0  0  0  0  0  0  0  0
   -0.4540    0.3670    2.0000 H   0  0  0  0  0  0  0  0  0  0  0  0
   -0.7300   -1.2780    1.2910 H   0  0  0  0  0  0  0  0  0  0  0  0
   -0.7550   -1.2550   -1.2880 H   0  0  0  0  0  0  0  0  0  0  0  0
   -0.4920    0.4020   -1.9730 H   0  0  0  0  0  0  0  0  0  0  0  0
   -3.3260    0.2160   -0.6390 H   0  0  0  0  0  0  0  0  0  0  0  0
   -1.4180    1.4730    0.0320 H   0  0  0  0  0  0  0  0  0  0  0  0
  1  2  1  0  0  0  0
  1  3  1  0  0  0  0
  1  4  1  0  0  0  0
  2  5  1  0  0  0  0
  3  5  1  0  0  0  0
  5  6  2  0  0  0  0
  5  7  2  0  0  0  0
  2  8  1  0  0  0  0
  2  9  1  0  0  0  0
  3 10  1  0  0  0  0
  3 11  1  0  0  0  0
  4 12  1  0  0  0  0
  1 13  1  0  0  0  0
M  END
> <OPENEYE_ISO_SMILES>
C1C(CS1(=O)=O)O

> <OPENEYE_INCHI>
InChI=1S/C3H6O3S/c4-3-1-7(5,6)2-3/h3-4H,1-2H2

> <OPENEYE_INCHIKEY>
CIUZABLJPXPIFC-UHFFFAOYSA-N

> <FORMULA>
C3H6O3S

$$$$
