W3J
  -OEChem-02242320043D

 16 16  0     0  0  0  0  0  0999 V2000
    0.2970   -1.1730   -0.0460 N   0  0  0  0  0  0  0  0  0  0  0  0
    2.3260    0.0470   -0.0580 N   0  0  0  0  0  0  0  0  0  0  0  0
    0.9520    0.0360   -0.0090 C   0  0  0  0  0  0  0  0  0  0  0  0
    0.3210    1.1610    0.0690 N   0  0  0  0  0  0  0  0  0  0  0  0
   -1.1310    1.2720    0.1470 C   0  0  0  0  0  0  0  0  0  0  0  0
   -1.7970    0.0000   -0.3810 C   0  0  0  0  0  0  0  0  0  0  0  0
   -1.1350   -1.2100    0.2870 C   0  0  0  0  0  0  0  0  0  0  0  0
    0.7700   -1.9840   -0.2900 H   0  0  0  0  0  0  0  0  0  0  0  0
    2.8160   -0.7880   -0.1170 H   0  0  0  0  0  0  0  0  0  0  0  0
    2.8050    0.8900   -0.0330 H   0  0  0  0  0  0  0  0  0  0  0  0
   -1.4240    1.4280    1.1850 H   0  0  0  0  0  0  0  0  0  0  0  0
   -1.4590    2.1240   -0.4490 H   0  0  0  0  0  0  0  0  0  0  0  0
   -2.8600    0.0160   -0.1400 H   0  0  0  0  0  0  0  0  0  0  0  0
   -1.6640   -0.0620   -1.4610 H   0  0  0  0  0  0  0  0  0  0  0  0
   -1.5820   -2.1310   -0.0900 H   0  0  0  0  0  0  0  0  0  0  0  0
   -1.2610   -1.1520    1.3680 H   0  0  0  0  0  0  0  0  0  0  0  0
  4  5  1  0  0  0  0
  5  6  1  0  0  0  0
  3  4  2  0  0  0  0
  6  7  1  0  0  0  0
  2  3  1  0  0  0  0
  1  3  1  0  0  0  0
  1  7  1  0  0  0  0
  1  8  1  0  0  0  0
  2  9  1  0  0  0  0
  2 10  1  0  0  0  0
  5 11  1  0  0  0  0
  5 12  1  0  0  0  0
  6 13  1  0  0  0  0
  6 14  1  0  0  0  0
  7 15  1  0  0  0  0
  7 16  1  0  0  0  0
M  END
> <OPENEYE_ISO_SMILES>
C1CNC(=NC1)N

> <OPENEYE_INCHI>
InChI=1S/C4H9N3/c5-4-6-2-1-3-7-4/h1-3H2,(H3,5,6,7)

> <OPENEYE_INCHIKEY>
PEHDFSFYZKSKGH-UHFFFAOYSA-N

> <FORMULA>
C4H9N3

$$$$
