@<TRIPOS>MOLECULE
/home/pku/3cl/gett_pdb/7E18/7E18_mol2/ligand/7E18_HUR.pdb
 41 45 0 0 0
SMALL
GASTEIGER

@<TRIPOS>ATOM
      1  C1        11.8200   -8.0520   25.2860 C.2   401  HUR401      0.0074
      2  C10        9.6400   -3.2740   22.6410 C.2   401  HUR401      0.2829
      3  C11        9.3910   -0.8090   22.6620 C.3   401  HUR401      0.1731
      4  C12       10.1080   -0.4210   21.3670 C.2   401  HUR401      0.2616
      5  C13        9.8330    0.6380   19.1560 C.3   401  HUR401      0.1592
      6  C14        9.2360   -0.1290   17.9450 C.3   401  HUR401      0.0388
      7  C15        9.8630   -1.5400   17.9000 C.3   401  HUR401      0.0821
      8  C16       11.3500   -1.4750   17.5150 C.3   401  HUR401      0.0326
      9  C17       11.5550   -2.8480   16.8760 C.3   401  HUR401      0.1156
     10  C18        9.3160   -2.3540   16.7140 C.2   401  HUR401      0.2410
     11  C19        9.7130    2.1640   19.0220 C.2   401  HUR401      0.2162
     12  C2        11.2430   -8.6780   24.1940 C.2   401  HUR401     -0.0003
     13  C20       10.1490    2.8260   20.1190 C.ar  401  HUR401      0.1471
     14  C21       11.8430    3.6780   21.4130 C.ar  401  HUR401      0.0880
     15  C22       10.8060    4.0710   22.1860 C.ar  401  HUR401      0.0486
     16  C23       13.0870    3.9730   21.8070 C.ar  401  HUR401      0.0196
     17  C24       13.3280    4.6720   22.9920 C.ar  401  HUR401      0.0016
     18  C25       12.2470    5.0690   23.7620 C.ar  401  HUR401      0.0006
     19  C26       10.9700    4.7480   23.3200 C.ar  401  HUR401      0.0080
     20  C27        9.5280    0.3450   23.6700 C.3   401  HUR401      0.0311
     21  C28        8.6220    0.0920   24.8790 C.3   401  HUR401      0.0022
     22  C29        9.0510    1.0000   26.0350 C.3   401  HUR401      0.0001
     23  C3        10.5830   -7.8740   23.2630 C.2   401  HUR401      0.0186
     24  C30        7.1700    0.4210   24.5430 C.3   401  HUR401      0.0001
     25  C4        10.5040   -6.5480   23.4010 C.2   401  HUR401      0.0801
     26  C5        11.0570   -5.9320   24.4590 C.2   401  HUR401      0.0280
     27  C6        11.7120   -6.6680   25.3870 C.3   401  HUR401      0.1611
     28  C7        10.1130   -4.4210   23.1980 C.2   401  HUR401      0.1359
     29  C8        10.8210   -4.6070   24.3330 C.2   401  HUR401      0.0237
     30  C9        13.0180   -6.7880   27.3660 C.3   401  HUR401      0.1749
     31  N1         9.9240   -5.6130   22.6290 N.2   401  HUR401     -0.2410
     32  N2         9.9030   -2.0810   23.2260 N.am  401  HUR401     -0.1927
     33  N3         9.3140    0.1530   20.4450 N.am  401  HUR401     -0.1978
     34  N4        10.2750   -3.0840   16.1180 N.am  401  HUR401     -0.2054
     35  N5        11.4640    3.0060   20.2920 N.ar  401  HUR401     -0.2354
     36  O1        12.2600   -5.9790   26.4360 O.3   401  HUR401     -0.3447
     37  O2         9.0140   -3.3270   21.5800 O.2   401  HUR401     -0.2667
     38  O3        11.3220   -0.6130   21.2330 O.2   401  HUR401     -0.2715
     39  O4         9.9660    2.6530   17.9110 O.2   401  HUR401     -0.2874
     40  O5         8.1380   -2.3450   16.3620 O.2   401  HUR401     -0.2734
     41  S1         9.3700    3.5430   21.4390 S.2   401  HUR401     -0.0636
@<TRIPOS>BOND
     1    34    10   am
     2    34     9    1
     3    40    10    2
     4    10     7    1
     5     9     8    1
     6     8     7    1
     7     7     6    1
     8    39    11    2
     9     6     5    1
    10    11     5    1
    11    11    13    1
    12     5    33    1
    13    13    35   ar
    14    13    41   ar
    15    35    14   ar
    16    33     4   am
    17    38     4    2
    18     4     3    1
    19    14    16   ar
    20    14    15   ar
    21    41    15   ar
    22    37     2    2
    23    16    17   ar
    24    15    19   ar
    25    31    28    2
    26    31    25    1
    27     2    28    1
    28     2    32   am
    29     3    32    1
    30     3    20    1
    31    17    18   ar
    32    28    29    1
    33    23    25    2
    34    23    12    1
    35    19    18   ar
    36    25    26    1
    37    20    21    1
    38    12     1    2
    39    29    26    2
    40    26    27    1
    41    24    21    1
    42    21    22    1
    43     1    27    1
    44    27    36    1
    45    36    30    1
