@<TRIPOS>MOLECULE
/home/pku/3cl/gett_pdb/8D47/8D47_mol2/ligand/8D47_PEG.pdb
 17 16 0 0 0
SMALL
GASTEIGER

@<TRIPOS>ATOM
      1  C1         6.3540   -9.8250  -33.3300 C.3   300  PEG300      0.0676
      2  O1         6.3440  -11.2390  -33.4880 O.3   300  PEG300     -0.3927
      3  C2         4.9870   -9.2270  -33.3860 C.3   300  PEG300      0.0708
      4  O2         4.9980   -7.9340  -32.7880 O.3   300  PEG300     -0.3753
      5  C3         4.0450   -7.7790  -31.7420 C.3   300  PEG300      0.0708
      6  C4         4.7550   -7.6220  -30.4360 C.3   300  PEG300      0.0676
      7  O4         3.8770   -7.7160  -29.3260 O.3   300  PEG300     -0.3927
      8  H11        6.8900   -9.4380  -34.0390 H     300  PEG300      0.0580
      9  H12        6.7500   -9.6120  -32.4710 H     300  PEG300      0.0580
     10  HO1        7.0240  -11.6290  -33.1560 H     300  PEG300      0.2095
     11  H21        4.3660   -9.7970  -32.9070 H     300  PEG300      0.0583
     12  H22        4.7060   -9.1500  -34.3110 H     300  PEG300      0.0583
     13  H31        3.4750   -8.5630  -31.7070 H     300  PEG300      0.0583
     14  H32        3.5040   -6.9920  -31.9120 H     300  PEG300      0.0583
     15  H41        5.1870   -6.7540  -30.4180 H     300  PEG300      0.0580
     16  H42        5.4270   -8.3180  -30.3610 H     300  PEG300      0.0580
     17  HO4        3.1830   -7.2350  -29.4130 H     300  PEG300      0.2095
@<TRIPOS>BOND
     1    12     3    1
     2     8     1    1
     3     2     1    1
     4     2    10    1
     5     3     1    1
     6     3    11    1
     7     3     4    1
     8     1     9    1
     9     4     5    1
    10    14     5    1
    11     5    13    1
    12     5     6    1
    13     6    15    1
    14     6    16    1
    15     6     7    1
    16    17     7    1
