K3A
  -OEChem-02242320033D

 19 19  0     0  0  0  0  0  0999 V2000
    2.2230    0.9910   -0.0000 N   0  0  0  0  0  0  0  0  0  0  0  0
    2.0460   -0.3470   -0.0000 C   0  0  0  0  0  0  0  0  0  0  0  0
    3.1370   -1.3860   -0.0000 C   0  0  0  0  0  0  0  0  0  0  0  0
   -1.3360    0.8380    0.0000 N   0  0  0  0  0  0  0  0  0  0  0  0
   -3.6550   -0.0240   -0.0000 C   0  0  0  0  0  0  0  0  0  0  0  0
   -1.7030   -1.3500    0.0000 O   0  0  0  0  0  0  0  0  0  0  0  0
   -2.1620   -0.2280   -0.0000 C   0  0  0  0  0  0  0  0  0  0  0  0
    0.0520    0.6480    0.0000 C   0  0  0  0  0  0  0  0  0  0  0  0
    0.7160   -0.5900    0.0000 C   0  0  0  0  0  0  0  0  0  0  0  0
    0.9600    1.5960   -0.0000 N   0  0  0  0  0  0  0  0  0  0  0  0
    3.0760    1.4530    0.0030 H   0  0  0  0  0  0  0  0  0  0  0  0
    3.4000   -1.6370   -1.0280 H   0  0  0  0  0  0  0  0  0  0  0  0
    4.0140   -0.9920    0.5130 H   0  0  0  0  0  0  0  0  0  0  0  0
    2.7870   -2.2810    0.5140 H   0  0  0  0  0  0  0  0  0  0  0  0
   -1.7030    1.7360    0.0000 H   0  0  0  0  0  0  0  0  0  0  0  0
   -3.8760    1.0440   -0.0000 H   0  0  0  0  0  0  0  0  0  0  0  0
   -4.0850   -0.4840   -0.8900 H   0  0  0  0  0  0  0  0  0  0  0  0
   -4.0850   -0.4840    0.8900 H   0  0  0  0  0  0  0  0  0  0  0  0
    0.2470   -1.5620    0.0000 H   0  0  0  0  0  0  0  0  0  0  0  0
  2  3  1  0  0  0  0
  2  9  2  0  0  0  0
  1  2  1  0  0  0  0
  8  9  1  0  0  0  0
  1 10  1  0  0  0  0
  8 10  2  0  0  0  0
  4  8  1  0  0  0  0
  6  7  2  0  0  0  0
  4  7  1  0  0  0  0
  5  7  1  0  0  0  0
  1 11  1  0  0  0  0
  3 12  1  0  0  0  0
  3 13  1  0  0  0  0
  3 14  1  0  0  0  0
  4 15  1  0  0  0  0
  5 16  1  0  0  0  0
  5 17  1  0  0  0  0
  5 18  1  0  0  0  0
  9 19  1  0  0  0  0
M  END
> <OPENEYE_ISO_SMILES>
Cc1cc(n[nH]1)NC(=O)C

> <OPENEYE_INCHI>
InChI=1S/C6H9N3O/c1-4-3-6(9-8-4)7-5(2)10/h3H,1-2H3,(H2,7,8,9,10)

> <OPENEYE_INCHIKEY>
LUFRABHJXNJTNZ-UHFFFAOYSA-N

> <FORMULA>
C6H9N3O

$$$$
