9OW
  -OEChem-02242320013D

 15 14  0     1  0  0  0  0  0999 V2000
   -0.8090    1.6650   -0.3860 N   0  0  0  0  0  0  0  0  0  0  0  0
   -0.9660    0.2040   -0.4140 C   0  0  2  0  0  0  0  0  0  0  0  0
   -2.3770   -0.1570   -0.0300 C   0  0  0  0  0  0  0  0  0  0  0  0
   -3.0620    0.6370    0.5790 O   0  0  0  0  0  0  0  0  0  0  0  0
    0.0120   -0.4330    0.5750 C   0  0  0  0  0  0  0  0  0  0  0  0
   -2.8780   -1.3630   -0.3640 N   0  0  0  0  0  0  0  0  0  0  0  0
    1.8500   -0.0970   -0.0140 Se  0  0  0  0  0  0  0  0  0  0  0  0
   -0.9970    2.0300    0.5360 H   0  0  0  0  0  0  0  0  0  0  0  0
    0.1100    1.9360   -0.7010 H   0  0  0  0  0  0  0  0  0  0  0  0
   -0.7570   -0.1640   -1.4190 H   0  0  0  0  0  0  0  0  0  0  0  0
   -0.1380    0.0010    1.5640 H   0  0  0  0  0  0  0  0  0  0  0  0
   -0.1650   -1.5080    0.6190 H   0  0  0  0  0  0  0  0  0  0  0  0
   -2.3300   -1.9980   -0.8510 H   0  0  0  0  0  0  0  0  0  0  0  0
   -3.7870   -1.5960   -0.1170 H   0  0  0  0  0  0  0  0  0  0  0  0
    2.6590   -0.8150    1.1100 H   0  0  0  0  0  0  0  0  0  0  0  0
  5  7  1  0  0  0  0
  2  5  1  0  0  0  0
  1  2  1  0  0  0  0
  2  3  1  0  0  0  0
  3  6  1  0  0  0  0
  3  4  2  0  0  0  0
  1  8  1  0  0  0  0
  1  9  1  0  0  0  0
  2 10  1  0  0  0  0
  5 11  1  0  0  0  0
  5 12  1  0  0  0  0
  6 13  1  0  0  0  0
  6 14  1  0  0  0  0
  7 15  1  0  0  0  0
M  END
> <OPENEYE_ISO_SMILES>
C([C@@H](C(=O)N)N)[SeH]

> <OPENEYE_INCHI>
InChI=1S/C3H8N2OSe/c4-2(1-7)3(5)6/h2,7H,1,4H2,(H2,5,6)/t2-/m0/s1

> <OPENEYE_INCHIKEY>
CLZAHPNIIBPCBI-REOHCLBHSA-N

> <FORMULA>
C3H8N2OSe

$$$$
