DTY
  -OEChem-02242320023D

 24 24  0     1  0  0  0  0  0999 V2000
   -0.2960   -1.6100    1.5900 N   0  0  0  0  0  0  0  0  0  0  0  0
    0.9750   -1.2550    1.0080 C   0  0  1  0  0  0  0  0  0  0  0  0
    1.8980   -2.4630    0.9370 C   0  0  0  0  0  0  0  0  0  0  0  0
    1.4930   -3.6010    0.7220 O   0  0  0  0  0  0  0  0  0  0  0  0
    0.7990   -0.6460   -0.3890 C   0  0  0  0  0  0  0  0  0  0  0  0
    1.9760    0.1990   -0.8150 C   0  0  0  0  0  0  0  0  0  0  0  0
    1.9830    1.5520   -0.5170 C   0  0  0  0  0  0  0  0  0  0  0  0
    3.0260   -0.3940   -1.4960 C   0  0  0  0  0  0  0  0  0  0  0  0
    3.0700    2.3330   -0.9110 C   0  0  0  0  0  0  0  0  0  0  0  0
    4.1130    0.3870   -1.8910 C   0  0  0  0  0  0  0  0  0  0  0  0
    4.1350    1.7500   -1.5980 C   0  0  0  0  0  0  0  0  0  0  0  0
    5.1940    2.5130   -1.9840 O   0  0  0  0  0  0  0  0  0  0  0  0
    3.2110   -2.1870    1.1200 O   0  0  0  0  0  0  0  0  0  0  0  0
   -1.0960   -1.0300    1.4040 H   0  0  0  0  0  0  0  0  0  0  0  0
   -0.3210   -2.2970    2.3240 H   0  0  0  0  0  0  0  0  0  0  0  0
    1.4370   -0.5410    1.7000 H   0  0  0  0  0  0  0  0  0  0  0  0
    0.6600   -1.4370   -1.1370 H   0  0  0  0  0  0  0  0  0  0  0  0
   -0.1210   -0.0470   -0.4270 H   0  0  0  0  0  0  0  0  0  0  0  0
    1.1580    2.0150    0.0180 H   0  0  0  0  0  0  0  0  0  0  0  0
    3.0180   -1.4560   -1.7290 H   0  0  0  0  0  0  0  0  0  0  0  0
    3.0800    3.3950   -0.6800 H   0  0  0  0  0  0  0  0  0  0  0  0
    4.9390   -0.0730   -2.4260 H   0  0  0  0  0  0  0  0  0  0  0  0
    5.7220    2.7700   -1.2110 H   0  0  0  0  0  0  0  0  0  0  0  0
    3.8070   -2.9640    1.0680 H   0  0  0  0  0  0  0  0  0  0  0  0
  1  2  1  0  0  0  0
  1 14  1  0  0  0  0
  1 15  1  0  0  0  0
  2  3  1  0  0  0  0
  2  5  1  0  0  0  0
  2 16  1  0  0  0  0
  3  4  2  0  0  0  0
  3 13  1  0  0  0  0
  5  6  1  0  0  0  0
  5 17  1  0  0  0  0
  5 18  1  0  0  0  0
  6  7  2  0  0  0  0
  6  8  1  0  0  0  0
  7  9  1  0  0  0  0
  7 19  1  0  0  0  0
  8 10  2  0  0  0  0
  8 20  1  0  0  0  0
  9 11  2  0  0  0  0
  9 21  1  0  0  0  0
 10 11  1  0  0  0  0
 10 22  1  0  0  0  0
 11 12  1  0  0  0  0
 12 23  1  0  0  0  0
 13 24  1  0  0  0  0
M  END
> <OPENEYE_ISO_SMILES>
c1cc(ccc1C[C@H](C(=O)O)N)O

> <OPENEYE_INCHI>
InChI=1S/C9H11NO3/c10-8(9(12)13)5-6-1-3-7(11)4-2-6/h1-4,8,11H,5,10H2,(H,12,13)/t8-/m1/s1

> <OPENEYE_INCHIKEY>
OUYCCCASQSFEME-MRVPVSSYSA-N

> <FORMULA>
C9H11NO3

$$$$
