T5V
  -OEChem-02242320043D

 12 12  0     0  0  0  0  0  0999 V2000
   -1.1200    1.1520    0.0000 N   0  0  0  0  0  0  0  0  0  0  0  0
    2.3140    0.0000    0.0000 N   0  0  0  0  0  0  0  0  0  0  0  0
    0.9170    0.0000   -0.0000 C   0  0  0  0  0  0  0  0  0  0  0  0
    0.2020    1.1950   -0.0000 C   0  0  0  0  0  0  0  0  0  0  0  0
   -1.7600   -0.0000    0.0000 C   0  0  0  0  0  0  0  0  0  0  0  0
    0.2020   -1.1950   -0.0000 C   0  0  0  0  0  0  0  0  0  0  0  0
   -1.1200   -1.1520    0.0000 N   0  0  0  0  0  0  0  0  0  0  0  0
    2.7990    0.8400    0.0000 H   0  0  0  0  0  0  0  0  0  0  0  0
    2.7990   -0.8400    0.0000 H   0  0  0  0  0  0  0  0  0  0  0  0
    0.7200    2.1430   -0.0010 H   0  0  0  0  0  0  0  0  0  0  0  0
   -2.8390   -0.0000    0.0010 H   0  0  0  0  0  0  0  0  0  0  0  0
    0.7200   -2.1430   -0.0010 H   0  0  0  0  0  0  0  0  0  0  0  0
  2  3  1  0  0  0  0
  3  4  1  0  0  0  0
  1  4  2  0  0  0  0
  1  5  1  0  0  0  0
  5  7  2  0  0  0  0
  6  7  1  0  0  0  0
  3  6  2  0  0  0  0
  2  8  1  0  0  0  0
  2  9  1  0  0  0  0
  4 10  1  0  0  0  0
  5 11  1  0  0  0  0
  6 12  1  0  0  0  0
M  END
> <OPENEYE_ISO_SMILES>
c1c(cncn1)N

> <OPENEYE_INCHI>
InChI=1S/C4H5N3/c5-4-1-6-3-7-2-4/h1-3H,5H2

> <OPENEYE_INCHIKEY>
FVLAYJRLBLHIPV-UHFFFAOYSA-N

> <FORMULA>
C4H5N3

$$$$
