@<TRIPOS>MOLECULE
/home/pku/3cl/gett_pdb/5S2I/5S2I_mol2/ligand/5S2I_LUY.pdb
 18 20 0 0 0
SMALL
GASTEIGER

@<TRIPOS>ATOM
      1  N1        36.9880   41.6810   -1.7270 N.2   601  LUY601     -0.1788
      2  C4        39.8770   45.0160   -7.0560 C.ar  601  LUY601     -0.0042
      3  C5        40.5690   45.1970   -8.2430 C.ar  601  LUY601     -0.0003
      4  C6        39.4710   43.8030   -4.8820 C.3   601  LUY601      0.0505
      5  C7        38.2850   42.8470   -4.9880 C.3   601  LUY601      0.1289
      6  C8        37.7280   41.7810   -2.8220 C.1   601  LUY601      0.1116
      7  C10       36.9560   39.8650    0.0470 C.ar  601  LUY601      0.0215
      8  C13       38.9820   38.6880   -1.5220 C.ar  601  LUY601      0.0215
      9  N         37.5480   42.7490   -3.7330 N.pl3 601  LUY601     -0.1719
     10  C         41.6190   44.3550   -8.5720 C.ar  601  LUY601     -0.0000
     11  C1        41.9650   43.3270   -7.7170 C.ar  601  LUY601     -0.0003
     12  C11       37.5090   38.6400    0.4010 C.ar  601  LUY601      0.0017
     13  C12       38.5110   38.0570   -0.3750 C.ar  601  LUY601      0.0017
     14  C14       38.4200   39.9140   -1.8710 C.ar  601  LUY601      0.1108
     15  C2        41.2680   43.1430   -6.5300 C.ar  601  LUY601     -0.0042
     16  C3        40.2170   43.9880   -6.1830 C.ar  601  LUY601     -0.0204
     17  C9        37.4100   40.5010   -1.1100 C.ar  601  LUY601      0.1108
     18  N2        38.6130   40.7640   -2.9530 N.2   601  LUY601     -0.1788
@<TRIPOS>BOND
     1    10     3   ar
     2    10    11   ar
     3     3     2   ar
     4    11    15   ar
     5     2    16   ar
     6    15    16   ar
     7    16     4    1
     8     5     4    1
     9     5     9    1
    10     9     6    1
    11    18     6    2
    12    18    14    1
    13     6     1    2
    14    14     8   ar
    15    14    17   ar
    16     1    17    1
    17     8    13   ar
    18    17     7   ar
    19    13    12   ar
    20     7    12   ar
