NZ1
  -OEChem-02242320033D

 20 21  0     0  0  0  0  0  0999 V2000
    3.8620   -1.0420    0.0010 N   0  0  0  0  0  0  0  0  0  0  0  0
   -0.6780    1.5890    0.0000 C   0  0  0  0  0  0  0  0  0  0  0  0
    0.4500    0.7730   -0.0010 C   0  0  0  0  0  0  0  0  0  0  0  0
    2.5770   -0.5400   -0.0000 C   0  0  0  0  0  0  0  0  0  0  0  0
    0.3190   -0.6180   -0.0010 C   0  0  0  0  0  0  0  0  0  0  0  0
   -0.9800   -1.1710   -0.0000 C   0  0  0  0  0  0  0  0  0  0  0  0
   -4.4360    0.0090    0.0000 C   0  0  0  0  0  0  0  0  0  0  0  0
   -2.0850   -0.3510    0.0000 C   0  0  0  0  0  0  0  0  0  0  0  0
   -1.9380    1.0330   -0.0000 C   0  0  0  0  0  0  0  0  0  0  0  0
    1.5060   -1.2570   -0.0000 N   0  0  0  0  0  0  0  0  0  0  0  0
   -3.3300   -0.8970    0.0000 O   0  0  0  0  0  0  0  0  0  0  0  0
    2.1670    1.1700   -0.0000 S   0  0  0  0  0  0  0  0  0  0  0  0
    4.6200   -0.4360    0.0010 H   0  0  0  0  0  0  0  0  0  0  0  0
    4.0080   -2.0010    0.0050 H   0  0  0  0  0  0  0  0  0  0  0  0
   -0.5650    2.6630    0.0040 H   0  0  0  0  0  0  0  0  0  0  0  0
   -1.1070   -2.2430   -0.0000 H   0  0  0  0  0  0  0  0  0  0  0  0
   -5.3680   -0.5560    0.0000 H   0  0  0  0  0  0  0  0  0  0  0  0
   -4.3910    0.6360    0.8900 H   0  0  0  0  0  0  0  0  0  0  0  0
   -4.3910    0.6360   -0.8900 H   0  0  0  0  0  0  0  0  0  0  0  0
   -2.8100    1.6690    0.0040 H   0  0  0  0  0  0  0  0  0  0  0  0
  1  4  1  0  0  0  0
  4 12  1  0  0  0  0
  4 10  2  0  0  0  0
  3 12  1  0  0  0  0
  5 10  1  0  0  0  0
  3  5  2  0  0  0  0
  2  3  1  0  0  0  0
  5  6  1  0  0  0  0
  2  9  2  0  0  0  0
  6  8  2  0  0  0  0
  8  9  1  0  0  0  0
  8 11  1  0  0  0  0
  7 11  1  0  0  0  0
  1 13  1  0  0  0  0
  1 14  1  0  0  0  0
  2 15  1  0  0  0  0
  6 16  1  0  0  0  0
  7 17  1  0  0  0  0
  7 18  1  0  0  0  0
  7 19  1  0  0  0  0
  9 20  1  0  0  0  0
M  END
> <OPENEYE_ISO_SMILES>
COc1ccc2c(c1)nc(s2)N

> <OPENEYE_INCHI>
InChI=1S/C8H8N2OS/c1-11-5-2-3-7-6(4-5)10-8(9)12-7/h2-4H,1H3,(H2,9,10)

> <OPENEYE_INCHIKEY>
OMIHQJBWAPWLBO-UHFFFAOYSA-N

> <FORMULA>
C8H8N2OS

$$$$
