@<TRIPOS>MOLECULE
/home/pku/3cl/gett_pdb/5RL1/5RL1_mol2/ligand/5RL1_VEJ.pdb
 30 31 0 0 0
SMALL
GASTEIGER

@<TRIPOS>ATOM
      1  N1         8.4070    1.6770   22.9290 N.am  1001  VEJ1001    -0.2037
      2  C4         8.4880    0.9770   21.7970 C.2   1001  VEJ1001     0.2642
      3  C5         9.4100    2.6650   23.3120 C.3   1001  VEJ1001     0.1178
      4  C6        10.7770    2.0390   23.5550 C.3   1001  VEJ1001     0.0555
      5  C7        11.8750    3.0310   23.8550 C.3   1001  VEJ1001     0.1441
      6  C8        13.3050    4.6350   22.9060 C.3   1001  VEJ1001     0.1741
      7  C10        7.2820   -0.1030   18.9590 C.ar  1001  VEJ1001     0.0967
      8  C13        5.5260    0.9890   20.1090 C.ar  1001  VEJ1001     0.0010
      9  C15       10.1790   -1.7600   21.7410 C.ar  1001  VEJ1001     0.0146
     10  C17       11.4360   -2.0310   23.7910 C.ar  1001  VEJ1001    -0.0227
     11  C20       12.7780   -2.0630   24.5350 C.3   1001  VEJ1001     0.0189
     12  C21       13.9670   -2.2790   23.5890 C.3   1001  VEJ1001     0.0044
     13  C22       12.8020   -3.1870   25.5840 C.3   1001  VEJ1001     0.0044
     14  O1         9.3870    1.1540   20.9850 O.2   1001  VEJ1001    -0.2712
     15  O2        12.0130    4.0390   22.8760 O.3   1001  VEJ1001    -0.3510
     16  C3         7.3700   -0.0390   21.5040 C.3   1001  VEJ1001     0.1817
     17  C9         6.6920    0.2380   20.1700 C.ar  1001  VEJ1001     0.0241
     18  C12        5.0200    1.3870   18.8860 C.ar  1001  VEJ1001     0.0204
     19  C11        5.7050    1.0140   17.7430 C.ar  1001  VEJ1001     0.0989
     20  N2         6.8220    0.2810   17.7620 N.ar  1001  VEJ1001    -0.2426
     21  N          7.7410   -1.4570   21.7830 N.am  1001  VEJ1001    -0.2480
     22  C2         6.8750   -2.4660   21.4570 C.2   1001  VEJ1001     0.2299
     23  O          5.7390   -2.2370   21.0790 O.2   1001  VEJ1001    -0.2745
     24  C1         7.3090   -3.8990   21.6660 C.3   1001  VEJ1001     0.0857
     25  C          8.3020   -4.4750   20.6330 C.3   1001  VEJ1001     0.0101
     26  C14        8.9870   -1.7100   22.4580 C.ar  1001  VEJ1001     0.0545
     27  C19        9.0230   -1.8460   23.8450 C.ar  1001  VEJ1001     0.0146
     28  C18       10.2360   -2.0130   24.4970 C.ar  1001  VEJ1001    -0.0030
     29  C23       12.9870   -0.7190   25.2260 C.3   1001  VEJ1001     0.0044
     30  C16       11.3850   -1.9150   22.4030 C.ar  1001  VEJ1001    -0.0030
@<TRIPOS>BOND
     1    19    20   ar
     2    19    18   ar
     3    20     7   ar
     4    18     8   ar
     5     7    17   ar
     6     8    17   ar
     7    17    16    1
     8    25    24    1
     9    14     2    2
    10    23    22    2
    11    22    24    1
    12    22    21   am
    13    16    21    1
    14    16     2    1
    15     9    30   ar
    16     9    26   ar
    17    21    26    1
    18     2     1   am
    19    30    10   ar
    20    26    27   ar
    21    15     6    1
    22    15     5    1
    23     1     3    1
    24     3     4    1
    25     4     5    1
    26    12    11    1
    27    10    28   ar
    28    10    11    1
    29    27    28   ar
    30    11    29    1
    31    11    13    1
