4SO
  -OEChem-02242320013D

 20 20  0     0  0  0  0  0  0999 V2000
   -2.9140   -1.2650    0.6520 O   0  0  0  0  0  0  0  0  0  0  0  0
    4.0660    1.1110   -0.0370 O   0  0  0  0  0  0  0  0  0  0  0  0
    1.2790    1.2360    0.0180 C   0  0  0  0  0  0  0  0  0  0  0  0
   -0.1000    1.2140    0.0450 C   0  0  0  0  0  0  0  0  0  0  0  0
   -0.7760    0.0060    0.0620 C   0  0  0  0  0  0  0  0  0  0  0  0
   -2.5370   -0.0130    0.0960 S   0  0  0  0  0  0  0  0  0  0  0  0
   -3.0580   -0.0230   -1.4760 N   0  0  0  0  0  0  0  0  0  0  0  0
    3.4700    0.0520   -0.0270 C   0  0  0  0  0  0  0  0  0  0  0  0
    1.9930    0.0360    0.0020 C   0  0  0  0  0  0  0  0  0  0  0  0
    1.3050   -1.1780    0.0130 C   0  0  0  0  0  0  0  0  0  0  0  0
   -0.0740   -1.1860    0.0520 C   0  0  0  0  0  0  0  0  0  0  0  0
   -2.9410    1.2350    0.6440 O   0  0  0  0  0  0  0  0  0  0  0  0
    4.1560   -1.1070   -0.0430 O   0  0  0  0  0  0  0  0  0  0  0  0
    1.8050    2.1790    0.0040 H   0  0  0  0  0  0  0  0  0  0  0  0
   -0.6540    2.1410    0.0530 H   0  0  0  0  0  0  0  0  0  0  0  0
   -3.8960   -0.4540   -1.7060 H   0  0  0  0  0  0  0  0  0  0  0  0
   -2.5240    0.4000   -2.1660 H   0  0  0  0  0  0  0  0  0  0  0  0
    1.8510   -2.1100    0.0010 H   0  0  0  0  0  0  0  0  0  0  0  0
   -0.6080   -2.1250    0.0610 H   0  0  0  0  0  0  0  0  0  0  0  0
    5.1210   -1.0460   -0.0610 H   0  0  0  0  0  0  0  0  0  0  0  0
  1  6  2  0  0  0  0
  2  8  2  0  0  0  0
  3  9  2  0  0  0  0
  3  4  1  0  0  0  0
  3 14  1  0  0  0  0
  4  5  2  0  0  0  0
  4 15  1  0  0  0  0
  5 11  1  0  0  0  0
  5  6  1  0  0  0  0
  6 12  2  0  0  0  0
  6  7  1  0  0  0  0
  7 16  1  0  0  0  0
  7 17  1  0  0  0  0
  8  9  1  0  0  0  0
  8 13  1  0  0  0  0
  9 10  1  0  0  0  0
 10 11  2  0  0  0  0
 10 18  1  0  0  0  0
 11 19  1  0  0  0  0
 13 20  1  0  0  0  0
M  END
> <OPENEYE_ISO_SMILES>
c1cc(ccc1C(=O)O)S(=O)(=O)N

> <OPENEYE_INCHI>
InChI=1S/C7H7NO4S/c8-13(11,12)6-3-1-5(2-4-6)7(9)10/h1-4H,(H,9,10)(H2,8,11,12)

> <OPENEYE_INCHIKEY>
UCAGLBKTLXCODC-UHFFFAOYSA-N

> <FORMULA>
C7H7NO4S

$$$$
