@<TRIPOS>MOLECULE
/home/pku/3cl/gett_pdb/5RU0/5RU0_mol2/ligand/5RU0_2CL.pdb
 17 17 0 0 0
SMALL
GASTEIGER

@<TRIPOS>ATOM
      1  C1       -43.8090  -30.6420    1.2430 C.ar  201  2CL201     -0.0053
      2  C2       -44.7880  -29.6800    1.2930 C.ar  201  2CL201      0.0459
      3  C3       -44.4760  -28.3550    1.1640 C.ar  201  2CL201     -0.0430
      4  C4       -43.1690  -27.9810    0.9950 C.ar  201  2CL201     -0.0590
      5  C5       -42.1680  -28.9200    0.9660 C.ar  201  2CL201     -0.0430
      6  C6       -42.4920  -30.2420    1.0650 C.ar  201  2CL201      0.0459
      7  C7       -44.1840  -32.1230    1.3710 C.3   201  2CL201      0.0148
      8  C8       -44.0620  -32.7430    2.7650 C.2   201  2CL201      0.0461
      9 CL1       -46.4710  -30.1550    1.5370 Cl    201  2CL201     -0.0832
     10 CL2       -41.1990  -31.4550    1.0070 Cl    201  2CL201     -0.0832
     11  O1       -44.3300  -33.9760    2.9070 O.co2 201  2CL201     -0.5495
     12  O2       -43.7130  -32.0360    3.7330 O.co2 201  2CL201     -0.5495
     13  H3       -45.1450  -27.7100    1.2110 H     201  2CL201      0.0632
     14  H4       -42.9550  -27.0790    0.9200 H     201  2CL201      0.0618
     15  H5       -41.2850  -28.6610    0.8310 H     201  2CL201      0.0632
     16  H71      -45.0920  -32.2530    1.0610 H     201  2CL201      0.0374
     17  H72      -43.6050  -32.6260    0.7780 H     201  2CL201      0.0374
@<TRIPOS>UNITY_ATOM_ATTR
12 1
charge -1
@<TRIPOS>BOND
     1    17     7    1
     2    15     5    1
     3    14     4    1
     4     5     4   ar
     5     5     6   ar
     6     4     3   ar
     7    10     6    1
     8    16     7    1
     9     6     1   ar
    10     3    13    1
    11     3     2   ar
    12     1     2   ar
    13     1     7    1
    14     2     9    1
    15     7     8    1
    16     8    11   ar
    17     8    12   ar
