W7Y
  -OEChem-02242320043D

 36 39  0     1  0  0  0  0  0999 V2000
    0.5970   -0.0780   -0.1980 C   0  0  0  0  0  0  0  0  0  0  0  0
    2.5100    1.1480    1.1630 C   0  0  0  0  0  0  0  0  0  0  0  0
   -4.0480   -1.6700    1.1440 C   0  0  0  0  0  0  0  0  0  0  0  0
   -4.0660   -0.5850    0.0550 C   0  0  0  0  0  0  0  0  0  0  0  0
   -2.7170   -0.1080    0.6180 C   0  0  0  0  0  0  0  0  0  0  0  0
   -2.5150   -1.5420    1.1360 C   0  0  0  0  0  0  0  0  0  0  0  0
   -1.7130    0.3030   -0.4610 C   0  0  1  0  0  0  0  0  0  0  0  0
   -2.2660    1.4980   -1.2650 C   0  0  0  0  0  0  0  0  0  0  0  0
   -1.5880    2.7180   -0.5880 C   0  0  0  0  0  0  0  0  0  0  0  0
   -0.1940    2.1440   -0.2310 C   0  0  0  0  0  0  0  0  0  0  0  0
    1.4050   -1.8940   -1.3700 C   0  0  0  0  0  0  0  0  0  0  0  0
    2.9310   -0.7030   -0.1260 C   0  0  0  0  0  0  0  0  0  0  0  0
    3.8160    0.8440    1.2370 C   0  0  0  0  0  0  0  0  0  0  0  0
    1.8950    0.1590    0.2800 C   0  0  0  0  0  0  0  0  0  0  0  0
   -0.4540    0.7440    0.1670 N   0  0  2  0  0  0  0  0  0  0  0  0
    0.4030   -1.1100   -1.0140 N   0  0  0  0  0  0  0  0  0  0  0  0
    2.6370   -1.7100   -0.9470 N   0  0  0  0  0  0  0  0  0  0  0  0
    4.0800   -0.2610    0.4710 N   0  0  0  0  0  0  0  0  0  0  0  0
    2.0090    1.9660    1.6600 H   0  0  0  0  0  0  0  0  0  0  0  0
   -4.5070   -1.3560    2.0810 H   0  0  0  0  0  0  0  0  0  0  0  0
   -4.4080   -2.6400    0.8000 H   0  0  0  0  0  0  0  0  0  0  0  0
   -4.0000   -0.9820   -0.9580 H   0  0  0  0  0  0  0  0  0  0  0  0
   -4.8700    0.1410    0.1750 H   0  0  0  0  0  0  0  0  0  0  0  0
   -2.8120    0.6330    1.4120 H   0  0  0  0  0  0  0  0  0  0  0  0
   -2.0680   -1.5890    2.1290 H   0  0  0  0  0  0  0  0  0  0  0  0
   -2.0260   -2.2010    0.4180 H   0  0  0  0  0  0  0  0  0  0  0  0
   -1.5200   -0.5380   -1.1270 H   0  0  0  0  0  0  0  0  0  0  0  0
   -1.9730    1.4270   -2.3120 H   0  0  0  0  0  0  0  0  0  0  0  0
   -3.3500    1.5560   -1.1720 H   0  0  0  0  0  0  0  0  0  0  0  0
   -1.5000    3.5520   -1.2840 H   0  0  0  0  0  0  0  0  0  0  0  0
   -2.1290    3.0170    0.3100 H   0  0  0  0  0  0  0  0  0  0  0  0
    0.4630    2.1760   -1.1000 H   0  0  0  0  0  0  0  0  0  0  0  0
    0.2440    2.6990    0.5980 H   0  0  0  0  0  0  0  0  0  0  0  0
    1.2040   -2.7210   -2.0350 H   0  0  0  0  0  0  0  0  0  0  0  0
    4.5480    1.3890    1.8140 H   0  0  0  0  0  0  0  0  0  0  0  0
    4.9530   -0.6710    0.3670 H   0  0  0  0  0  0  0  0  0  0  0  0
  8  9  1  0  0  0  0
  9 10  1  0  0  0  0
  7  8  1  0  0  0  0
  3  6  1  0  0  0  0
  5  6  1  0  0  0  0
  3  4  1  0  0  0  0
  4  5  1  0  0  0  0
 10 15  1  0  0  0  0
  5  7  1  0  0  0  0
  7 15  1  0  0  0  0
  1 15  1  0  0  0  0
  1 16  2  0  0  0  0
  1 14  1  0  0  0  0
  2 14  1  0  0  0  0
  2 13  2  0  0  0  0
 11 16  1  0  0  0  0
 12 14  2  0  0  0  0
 13 18  1  0  0  0  0
 11 17  2  0  0  0  0
 12 18  1  0  0  0  0
 12 17  1  0  0  0  0
  2 19  1  0  0  0  0
  3 20  1  0  0  0  0
  3 21  1  0  0  0  0
  4 22  1  0  0  0  0
  4 23  1  0  0  0  0
  5 24  1  0  0  0  0
  6 25  1  0  0  0  0
  6 26  1  0  0  0  0
  7 27  1  0  0  0  0
  8 28  1  0  0  0  0
  8 29  1  0  0  0  0
  9 30  1  0  0  0  0
  9 31  1  0  0  0  0
 10 32  1  0  0  0  0
 10 33  1  0  0  0  0
 11 34  1  0  0  0  0
 13 35  1  0  0  0  0
 18 36  1  0  0  0  0
M  END
> <OPENEYE_ISO_SMILES>
c1c[nH]c2c1c(ncn2)[N@]3CCC[C@@H]3C4CCC4

> <OPENEYE_INCHI>
InChI=1S/C14H18N4/c1-3-10(4-1)12-5-2-8-18(12)14-11-6-7-15-13(11)16-9-17-14/h6-7,9-10,12H,1-5,8H2,(H,15,16,17)/t12-/m1/s1

> <OPENEYE_INCHIKEY>
BDDRHCCHCFMOJZ-GFCCVEGCSA-N

> <FORMULA>
C14H18N4

$$$$
