JG8
  -OEChem-02242320033D

 20 22  0     0  0  0  0  0  0999 V2000
    2.8580   -1.7780    0.0030 O   0  0  0  0  0  0  0  0  0  0  0  0
    2.3290   -0.6780    0.0020 C   0  0  0  0  0  0  0  0  0  0  0  0
    3.0760    0.4470   -0.0040 N   0  0  0  0  0  0  0  0  0  0  0  0
    2.4830    1.6670   -0.0060 C   0  0  0  0  0  0  0  0  0  0  0  0
    1.1860    1.8000   -0.0020 N   0  0  0  0  0  0  0  0  0  0  0  0
    0.3780    0.7280    0.0040 C   0  0  0  0  0  0  0  0  0  0  0  0
    0.9220   -0.5530    0.0010 C   0  0  0  0  0  0  0  0  0  0  0  0
   -0.0820   -1.4540    0.0000 O   0  0  0  0  0  0  0  0  0  0  0  0
   -1.2880   -0.8470   -0.0020 C   0  0  0  0  0  0  0  0  0  0  0  0
   -1.0810    0.5420    0.0100 C   0  0  0  0  0  0  0  0  0  0  0  0
   -2.5880   -1.3380   -0.0030 C   0  0  0  0  0  0  0  0  0  0  0  0
   -3.6560   -0.4670   -0.0050 C   0  0  0  0  0  0  0  0  0  0  0  0
   -3.4490    0.9050   -0.0060 C   0  0  0  0  0  0  0  0  0  0  0  0
   -2.1680    1.4130    0.0110 C   0  0  0  0  0  0  0  0  0  0  0  0
    4.0440    0.3820   -0.0070 H   0  0  0  0  0  0  0  0  0  0  0  0
    3.1020    2.5520   -0.0100 H   0  0  0  0  0  0  0  0  0  0  0  0
   -2.7620   -2.4040   -0.0030 H   0  0  0  0  0  0  0  0  0  0  0  0
   -2.0080    2.4810    0.0070 H   0  0  0  0  0  0  0  0  0  0  0  0
   -4.6630   -0.8550   -0.0060 H   0  0  0  0  0  0  0  0  0  0  0  0
   -4.2950    1.5770   -0.0070 H   0  0  0  0  0  0  0  0  0  0  0  0
  1  2  2  0  0  0  0
  2  3  1  0  0  0  0
  2  7  1  0  0  0  0
  3  4  1  0  0  0  0
  4  5  2  0  0  0  0
  5  6  1  0  0  0  0
  6  7  2  0  0  0  0
  6 10  1  0  0  0  0
  7  8  1  0  0  0  0
  8  9  1  0  0  0  0
  9 10  1  0  0  0  0
  9 11  2  0  0  0  0
 10 14  2  0  0  0  0
 11 12  1  0  0  0  0
 12 13  2  0  0  0  0
 13 14  1  0  0  0  0
  3 15  1  0  0  0  0
  4 16  1  0  0  0  0
 11 17  1  0  0  0  0
 14 18  1  0  0  0  0
 12 19  1  0  0  0  0
 13 20  1  0  0  0  0
M  END
> <OPENEYE_ISO_SMILES>
c1ccc2c(c1)c3c(o2)c(=O)[nH]cn3

> <OPENEYE_INCHI>
InChI=1S/C10H6N2O2/c13-10-9-8(11-5-12-10)6-3-1-2-4-7(6)14-9/h1-5H,(H,11,12,13)

> <OPENEYE_INCHIKEY>
PCCWPSFTRGJXEF-UHFFFAOYSA-N

> <FORMULA>
C10H6N2O2

$$$$
