@<TRIPOS>MOLECULE
/home/pku/3cl/gett_pdb/5RTG/5RTG_mol2/ligand/5RTG_3HP.pdb
 18 18 0 0 0
SMALL
GASTEIGER

@<TRIPOS>ATOM
      1  C8       -43.2170  -32.3900    2.6010 C.2   201  3HP201      0.0914
      2  O1       -43.4180  -33.6030    2.6920 O.co2 201  3HP201     -0.8474
      3  O2       -43.1480  -31.6270    3.5990 O.co2 201  3HP201     -0.3087
      4  C7       -43.0210  -31.8680    1.2390 C.3   201  3HP201      0.0213
      5  C1       -43.6940  -30.5400    1.0950 C.ar  201  3HP201     -0.0377
      6  C2       -42.8960  -29.4210    1.1140 C.ar  201  3HP201     -0.0166
      7  C3       -43.4870  -28.2000    0.9840 C.ar  201  3HP201      0.1171
      8  C4       -44.8810  -28.0670    0.8510 C.ar  201  3HP201     -0.0202
      9  C5       -45.6890  -29.1900    0.8780 C.ar  201  3HP201     -0.0580
     10  C6       -45.0880  -30.4410    0.9920 C.ar  201  3HP201     -0.0580
     11  O3       -42.5830  -27.1580    0.9830 O.3   201  3HP201     -0.5068
     12  H71      -42.0720  -31.7670    1.0670 H     201  3HP201      0.0381
     13  H72      -43.3990  -32.4910    0.5990 H     201  3HP201      0.0381
     14  H2       -41.9710  -29.4970    1.1770 H     201  3HP201      0.0657
     15  H4       -45.2620  -27.2220    0.7810 H     201  3HP201      0.0654
     16  H5       -46.6120  -29.1130    0.7910 H     201  3HP201      0.0619
     17  H6       -45.6110  -31.2100    0.9980 H     201  3HP201      0.0620
     18  HO3      -42.5290  -26.8300    0.2010 H     201  3HP201      0.2921
@<TRIPOS>UNITY_ATOM_ATTR
2 1
charge -1
@<TRIPOS>BOND
     1    18    11    1
     2    13     4    1
     3    15     8    1
     4    16     9    1
     5     8     9   ar
     6     8     7   ar
     7     9    10   ar
     8    11     7    1
     9     7     6   ar
    10    10    17    1
    11    10     5   ar
    12    12     4    1
    13     5     6   ar
    14     5     4    1
    15     6    14    1
    16     4     1    1
    17     1     2   ar
    18     1     3   ar
