VEP
  -OEChem-02242320043D

 64 66  0     1  0  0  0  0  0999 V2000
   -1.6180   -1.0050   -0.0960 N   0  0  0  0  0  0  0  0  0  0  0  0
   -1.3070   -0.2920   -1.1960 C   0  0  0  0  0  0  0  0  0  0  0  0
   -2.2980   -2.2960   -0.2270 C   0  0  0  0  0  0  0  0  0  0  0  0
   -1.9880   -3.1650    0.9950 C   0  0  0  0  0  0  0  0  0  0  0  0
   -2.7640   -4.4800    0.8870 C   0  0  0  0  0  0  0  0  0  0  0  0
   -4.5170   -3.4300   -0.3690 C   0  0  0  0  0  0  0  0  0  0  0  0
   -1.6330    2.1290   -0.8910 C   0  0  0  0  0  0  0  0  0  0  0  0
   -3.8940    2.8620   -0.7210 C   0  0  0  0  0  0  0  0  0  0  0  0
    1.5860    0.5420   -0.0140 C   0  0  0  0  0  0  0  0  0  0  0  0
    3.1760   -0.9420   -1.0230 C   0  0  0  0  0  0  0  0  0  0  0  0
    2.5990    1.1040    0.7510 C   0  0  0  0  0  0  0  0  0  0  0  0
    5.5970   -0.8850   -0.3900 C   0  0  0  0  0  0  0  0  0  0  0  0
    5.6420   -2.3710   -0.0270 C   0  0  0  0  0  0  0  0  0  0  0  0
    6.0750   -0.6970   -1.8310 C   0  0  0  0  0  0  0  0  0  0  0  0
   -1.5900   -0.7190   -2.2950 O   0  0  0  0  0  0  0  0  0  0  0  0
   -3.8110   -2.0730   -0.3110 C   0  0  0  0  0  0  0  0  0  0  0  0
   -4.1610   -4.2000    0.7810 O   0  0  0  0  0  0  0  0  0  0  0  0
   -0.6090    1.0370   -1.0610 C   0  0  1  0  0  0  0  0  0  0  0  0
   -2.9870    1.8260   -0.8800 C   0  0  0  0  0  0  0  0  0  0  0  0
   -3.4220    4.1540   -0.5810 C   0  0  0  0  0  0  0  0  0  0  0  0
   -2.1270    4.4040   -0.5900 N   0  0  0  0  0  0  0  0  0  0  0  0
   -1.2360    3.4430   -0.7390 C   0  0  0  0  0  0  0  0  0  0  0  0
    0.2720    1.0080    0.1100 N   0  0  0  0  0  0  0  0  0  0  0  0
   -0.1830    1.4310    1.3060 C   0  0  0  0  0  0  0  0  0  0  0  0
   -1.3560    1.7030    1.4470 O   0  0  0  0  0  0  0  0  0  0  0  0
    0.7670    1.5650    2.4690 C   0  0  0  0  0  0  0  0  0  0  0  0
   -0.0230    1.5310    3.7790 C   0  0  0  0  0  0  0  0  0  0  0  0
    3.8940    0.6420    0.6260 C   0  0  0  0  0  0  0  0  0  0  0  0
    4.1830   -0.3800   -0.2600 C   0  0  0  0  0  0  0  0  0  0  0  0
    6.5080   -0.1010    0.5570 C   0  0  0  0  0  0  0  0  0  0  0  0
    1.8800   -0.4800   -0.9070 C   0  0  0  0  0  0  0  0  0  0  0  0
   -1.3890   -0.6650    0.7840 H   0  0  0  0  0  0  0  0  0  0  0  0
   -1.9520   -2.8000   -1.1300 H   0  0  0  0  0  0  0  0  0  0  0  0
   -0.9190   -3.3750    1.0310 H   0  0  0  0  0  0  0  0  0  0  0  0
   -2.2870   -2.6390    1.9020 H   0  0  0  0  0  0  0  0  0  0  0  0
   -2.4350   -5.0250    0.0020 H   0  0  0  0  0  0  0  0  0  0  0  0
   -2.5800   -5.0850    1.7750 H   0  0  0  0  0  0  0  0  0  0  0  0
   -5.5960   -3.2780   -0.3850 H   0  0  0  0  0  0  0  0  0  0  0  0
   -4.2100   -3.9610   -1.2700 H   0  0  0  0  0  0  0  0  0  0  0  0
   -4.9550    2.6630   -0.7080 H   0  0  0  0  0  0  0  0  0  0  0  0
    3.4050   -1.7390   -1.7150 H   0  0  0  0  0  0  0  0  0  0  0  0
    2.3740    1.9030    1.4430 H   0  0  0  0  0  0  0  0  0  0  0  0
    6.6650   -2.7370   -0.1210 H   0  0  0  0  0  0  0  0  0  0  0  0
    5.3010   -2.5050    1.0000 H   0  0  0  0  0  0  0  0  0  0  0  0
    4.9930   -2.9300   -0.7010 H   0  0  0  0  0  0  0  0  0  0  0  0
    5.4260   -1.2560   -2.5050 H   0  0  0  0  0  0  0  0  0  0  0  0
    6.0430    0.3610   -2.0890 H   0  0  0  0  0  0  0  0  0  0  0  0
    7.0980   -1.0630   -1.9240 H   0  0  0  0  0  0  0  0  0  0  0  0
   -4.1470   -1.5250    0.5690 H   0  0  0  0  0  0  0  0  0  0  0  0
   -4.0460   -1.5010   -1.2090 H   0  0  0  0  0  0  0  0  0  0  0  0
   -0.0170    1.2290   -1.9560 H   0  0  0  0  0  0  0  0  0  0  0  0
   -3.3260    0.8070   -0.9930 H   0  0  0  0  0  0  0  0  0  0  0  0
   -4.1220    4.9670   -0.4560 H   0  0  0  0  0  0  0  0  0  0  0  0
   -0.1840    3.6870   -0.7430 H   0  0  0  0  0  0  0  0  0  0  0  0
    1.4790    0.7400    2.4530 H   0  0  0  0  0  0  0  0  0  0  0  0
    1.3040    2.5100    2.3920 H   0  0  0  0  0  0  0  0  0  0  0  0
    0.6630    1.6280    4.6200 H   0  0  0  0  0  0  0  0  0  0  0  0
   -0.7360    2.3560    3.7940 H   0  0  0  0  0  0  0  0  0  0  0  0
   -0.5610    0.5860    3.8550 H   0  0  0  0  0  0  0  0  0  0  0  0
    4.6830    1.0790    1.2210 H   0  0  0  0  0  0  0  0  0  0  0  0
    6.4750    0.9570    0.2980 H   0  0  0  0  0  0  0  0  0  0  0  0
    6.1670   -0.2350    1.5830 H   0  0  0  0  0  0  0  0  0  0  0  0
    7.5300   -0.4670    0.4630 H   0  0  0  0  0  0  0  0  0  0  0  0
    1.0940   -0.9200   -1.5030 H   0  0  0  0  0  0  0  0  0  0  0  0
 20 21  2  0  0  0  0
  8 20  1  0  0  0  0
 21 22  1  0  0  0  0
  8 19  2  0  0  0  0
  7 22  2  0  0  0  0
 26 27  1  0  0  0  0
  7 19  1  0  0  0  0
  7 18  1  0  0  0  0
  2 15  2  0  0  0  0
 24 25  2  0  0  0  0
 24 26  1  0  0  0  0
  2 18  1  0  0  0  0
 18 23  1  0  0  0  0
 23 24  1  0  0  0  0
  1  2  1  0  0  0  0
  9 23  1  0  0  0  0
  9 31  2  0  0  0  0
 10 31  1  0  0  0  0
  9 11  1  0  0  0  0
 10 29  2  0  0  0  0
  1  3  1  0  0  0  0
  3  4  1  0  0  0  0
  3 16  1  0  0  0  0
  4  5  1  0  0  0  0
  5 17  1  0  0  0  0
 12 30  1  0  0  0  0
 11 28  2  0  0  0  0
 28 29  1  0  0  0  0
 12 29  1  0  0  0  0
  6 16  1  0  0  0  0
  6 17  1  0  0  0  0
 12 14  1  0  0  0  0
 12 13  1  0  0  0  0
  1 32  1  0  0  0  0
  3 33  1  0  0  0  0
  4 34  1  0  0  0  0
  4 35  1  0  0  0  0
  5 36  1  0  0  0  0
  5 37  1  0  0  0  0
  6 38  1  0  0  0  0
  6 39  1  0  0  0  0
  8 40  1  0  0  0  0
 10 41  1  0  0  0  0
 11 42  1  0  0  0  0
 13 43  1  0  0  0  0
 13 44  1  0  0  0  0
 13 45  1  0  0  0  0
 14 46  1  0  0  0  0
 14 47  1  0  0  0  0
 14 48  1  0  0  0  0
 16 49  1  0  0  0  0
 16 50  1  0  0  0  0
 18 51  1  0  0  0  0
 19 52  1  0  0  0  0
 20 53  1  0  0  0  0
 22 54  1  0  0  0  0
 26 55  1  0  0  0  0
 26 56  1  0  0  0  0
 27 57  1  0  0  0  0
 27 58  1  0  0  0  0
 27 59  1  0  0  0  0
 28 60  1  0  0  0  0
 30 61  1  0  0  0  0
 30 62  1  0  0  0  0
 30 63  1  0  0  0  0
 31 64  1  0  0  0  0
M  END
> <OPENEYE_ISO_SMILES>
CCC(=O)N(c1ccc(cc1)C(C)(C)C)[C@H](c2cccnc2)C(=O)NC3CCOCC3

> <OPENEYE_INCHI>
InChI=1S/C25H33N3O3/c1-5-22(29)28(21-10-8-19(9-11-21)25(2,3)4)23(18-7-6-14-26-17-18)24(30)27-20-12-15-31-16-13-20/h6-11,14,17,20,23H,5,12-13,15-16H2,1-4H3,(H,27,30)/t23-/m1/s1

> <OPENEYE_INCHIKEY>
RRENCBKXJJGAMC-HSZRJFAPSA-N

> <FORMULA>
C25H33N3O3

$$$$
