@<TRIPOS>MOLECULE
/home/pku/3cl/gett_pdb/7B2J/7B2J_mol2/ligand/7B2J_SQ2.pdb
 19 21 0 0 0
SMALL
GASTEIGER

@<TRIPOS>ATOM
      1  N1        10.9760    0.7180   22.2240 N.am  401  SQ2401     -0.2779
      2  N3         8.6670    0.6280   18.3150 N.ar  401  SQ2401     -0.0634
      3  C4        10.9980   -0.6330   22.7970 C.3   401  SQ2401      0.0935
      4  C5        10.1600    1.0900   21.2240 C.2   401  SQ2401      0.2506
      5  C6         9.2310    0.0540   20.6110 C.3   401  SQ2401      0.2137
      6  C7         6.8180    1.7440   18.5560 C.ar  401  SQ2401      0.1217
      7  C8         5.6470    2.4880   18.3560 C.ar  401  SQ2401      0.0225
      8  C10        5.3400    2.4500   20.7500 C.ar  401  SQ2401      0.0016
      9  C13       11.9380    1.6610   22.8160 C.3   401  SQ2401      0.0935
     10  C1        14.7770   -0.8720   23.5340 C.3   401  SQ2401      0.0001
     11  C11        6.4780    1.7200   20.9680 C.ar  401  SQ2401      0.0204
     12  C12        7.2050    1.3670   19.8320 C.ar  401  SQ2401      0.0994
     13  C14       13.3420    1.0890   22.8190 C.3   401  SQ2401      0.0216
     14  C2        13.3730   -0.2810   23.4820 C.3   401  SQ2401      0.0034
     15  C3        12.4040   -1.1880   22.7390 C.3   401  SQ2401      0.0216
     16  C9         4.9340    2.8230   19.4680 C.ar  401  SQ2401      0.0017
     17  N2         8.3610    0.6740   19.6400 N.ar  401  SQ2401     -0.2223
     18  N4         7.7410    1.2630   17.6540 N.ar  401  SQ2401     -0.1288
     19  O1        10.1170    2.2480   20.8350 O.2   401  SQ2401     -0.2727
@<TRIPOS>BOND
     1    18     2   ar
     2    18     6   ar
     3     2    17   ar
     4     7     6   ar
     5     7    16   ar
     6     6    12   ar
     7    16     8   ar
     8    17    12   ar
     9    17     5    1
    10    12    11   ar
    11     5     4    1
    12     8    11   ar
    13    19     4    2
    14     4     1   am
    15     1     3    1
    16     1     9    1
    17    15     3    1
    18    15    14    1
    19     9    13    1
    20    13    14    1
    21    14    10    1
