RRF
  -OEChem-02242320043D

 40 43  0     1  0  0  0  0  0999 V2000
    4.4630    0.0050    0.9420 C   0  0  0  0  0  0  0  0  0  0  0  0
    3.0710   -0.7560   -0.8860 C   0  0  0  0  0  0  0  0  0  0  0  0
    4.3180   -0.7050   -0.2640 C   0  0  0  0  0  0  0  0  0  0  0  0
    1.9910   -0.0930   -0.3120 C   0  0  0  0  0  0  0  0  0  0  0  0
    0.6670   -0.1420   -0.9640 C   0  0  0  0  0  0  0  0  0  0  0  0
   -1.6950    0.4520   -1.0560 C   0  0  1  0  0  0  0  0  0  0  0  0
   -2.4670   -0.7620   -0.5860 C   0  0  0  0  0  0  0  0  0  0  0  0
   -2.3590   -2.0930   -0.9560 C   0  0  0  0  0  0  0  0  0  0  0  0
    6.3940   -0.8850    0.3510 C   0  0  0  0  0  0  0  0  0  0  0  0
   -1.6680    2.8210   -0.2230 C   0  0  0  0  0  0  0  0  0  0  0  0
   -2.5470    1.6660   -0.6280 C   0  0  2  0  0  0  0  0  0  0  0  0
   -3.3230    1.1140    0.5860 C   0  0  0  0  0  0  0  0  0  0  0  0
   -3.4020   -0.3840    0.3570 C   0  0  0  0  0  0  0  0  0  0  0  0
   -4.2310   -1.3410    0.9310 C   0  0  0  0  0  0  0  0  0  0  0  0
   -4.1190   -2.6720    0.5580 C   0  0  0  0  0  0  0  0  0  0  0  0
   -3.1820   -3.0450   -0.3860 C   0  0  0  0  0  0  0  0  0  0  0  0
    3.3690    0.6510    1.5070 C   0  0  0  0  0  0  0  0  0  0  0  0
    2.1520    0.6040    0.8920 C   0  0  0  0  0  0  0  0  0  0  0  0
   -0.3810    0.5000   -0.4100 N   0  0  0  0  0  0  0  0  0  0  0  0
    5.7850   -0.1310    1.3060 N   0  0  0  0  0  0  0  0  0  0  0  0
    5.5370   -1.2230   -0.5680 N   0  0  0  0  0  0  0  0  0  0  0  0
   -1.3830    2.9830    0.9400 O   0  0  0  0  0  0  0  0  0  0  0  0
   -5.1520   -0.9720    1.8600 O   0  0  0  0  0  0  0  0  0  0  0  0
    0.5210   -0.7610   -2.0000 O   0  0  0  0  0  0  0  0  0  0  0  0
   -1.2020    3.6690   -1.1530 O   0  0  0  0  0  0  0  0  0  0  0  0
    2.9480   -1.2940   -1.8150 H   0  0  0  0  0  0  0  0  0  0  0  0
   -1.5820    0.4320   -2.1400 H   0  0  0  0  0  0  0  0  0  0  0  0
   -1.6270   -2.3870   -1.6940 H   0  0  0  0  0  0  0  0  0  0  0  0
    7.4370   -1.1660    0.3560 H   0  0  0  0  0  0  0  0  0  0  0  0
   -3.2280    1.9610   -1.4260 H   0  0  0  0  0  0  0  0  0  0  0  0
   -2.7840    1.3270    1.5090 H   0  0  0  0  0  0  0  0  0  0  0  0
   -4.3230    1.5460    0.6240 H   0  0  0  0  0  0  0  0  0  0  0  0
   -4.7620   -3.4150    1.0050 H   0  0  0  0  0  0  0  0  0  0  0  0
   -3.0920   -4.0810   -0.6780 H   0  0  0  0  0  0  0  0  0  0  0  0
    3.4830    1.1910    2.4360 H   0  0  0  0  0  0  0  0  0  0  0  0
    1.3090    1.1170    1.3320 H   0  0  0  0  0  0  0  0  0  0  0  0
   -0.2650    0.9940    0.4170 H   0  0  0  0  0  0  0  0  0  0  0  0
    6.2040    0.2420    2.0970 H   0  0  0  0  0  0  0  0  0  0  0  0
   -6.0120   -0.7360    1.4880 H   0  0  0  0  0  0  0  0  0  0  0  0
   -0.6430    4.3950   -0.8440 H   0  0  0  0  0  0  0  0  0  0  0  0
 14 23  1  0  0  0  0
 15 16  2  0  0  0  0
 14 15  1  0  0  0  0
  8 16  1  0  0  0  0
 13 14  2  0  0  0  0
  7  8  2  0  0  0  0
  7 13  1  0  0  0  0
 12 13  1  0  0  0  0
  6  7  1  0  0  0  0
 11 12  1  0  0  0  0
  6 11  1  0  0  0  0
 10 11  1  0  0  0  0
  6 19  1  0  0  0  0
  5 24  2  0  0  0  0
 10 22  2  0  0  0  0
 10 25  1  0  0  0  0
  5 19  1  0  0  0  0
  4  5  1  0  0  0  0
  2  4  2  0  0  0  0
  2  3  1  0  0  0  0
  4 18  1  0  0  0  0
  3 21  1  0  0  0  0
  1  3  2  0  0  0  0
  9 21  2  0  0  0  0
 17 18  2  0  0  0  0
  1 17  1  0  0  0  0
  1 20  1  0  0  0  0
  9 20  1  0  0  0  0
  2 26  1  0  0  0  0
  6 27  1  0  0  0  0
  8 28  1  0  0  0  0
  9 29  1  0  0  0  0
 11 30  1  0  0  0  0
 12 31  1  0  0  0  0
 12 32  1  0  0  0  0
 15 33  1  0  0  0  0
 16 34  1  0  0  0  0
 17 35  1  0  0  0  0
 18 36  1  0  0  0  0
 19 37  1  0  0  0  0
 20 38  1  0  0  0  0
 23 39  1  0  0  0  0
 25 40  1  0  0  0  0
M  END
> <OPENEYE_ISO_SMILES>
c1cc2c(c(c1)O)C[C@H]([C@H]2NC(=O)c3ccc4c(c3)nc[nH]4)C(=O)O

> <OPENEYE_INCHI>
InChI=1S/C18H15N3O4/c22-15-3-1-2-10-11(15)7-12(18(24)25)16(10)21-17(23)9-4-5-13-14(6-9)20-8-19-13/h1-6,8,12,16,22H,7H2,(H,19,20)(H,21,23)(H,24,25)/t12-,16+/m1/s1

> <OPENEYE_INCHIKEY>
KTTMBKKRQWCTBJ-WBMJQRKESA-N

> <FORMULA>
C18H15N3O4

$$$$
