RS0
  -OEChem-02242320043D

 40 43  0     1  0  0  0  0  0999 V2000
    1.6510    2.8120   -0.2140 C   0  0  0  0  0  0  0  0  0  0  0  0
    2.5370    1.6650   -0.6290 C   0  0  1  0  0  0  0  0  0  0  0  0
    3.3250    1.1170    0.5790 C   0  0  0  0  0  0  0  0  0  0  0  0
    3.4170   -0.3760    0.3470 C   0  0  0  0  0  0  0  0  0  0  0  0
    4.2580   -1.3270    0.9140 C   0  0  0  0  0  0  0  0  0  0  0  0
    4.1560   -2.6570    0.5400 C   0  0  0  0  0  0  0  0  0  0  0  0
    3.2160   -3.0380   -0.3990 C   0  0  0  0  0  0  0  0  0  0  0  0
    2.3810   -2.0930   -0.9620 C   0  0  0  0  0  0  0  0  0  0  0  0
    2.4790   -0.7620   -0.5910 C   0  0  0  0  0  0  0  0  0  0  0  0
    1.6920    0.4470   -1.0600 C   0  0  1  0  0  0  0  0  0  0  0  0
   -0.6720   -0.1360   -0.9730 C   0  0  0  0  0  0  0  0  0  0  0  0
   -1.9930   -0.0970   -0.3150 C   0  0  0  0  0  0  0  0  0  0  0  0
   -3.0780   -0.7440   -0.8980 C   0  0  0  0  0  0  0  0  0  0  0  0
   -4.3220   -0.7020   -0.2700 C   0  0  0  0  0  0  0  0  0  0  0  0
   -4.4620   -0.0070    0.9450 C   0  0  0  0  0  0  0  0  0  0  0  0
   -6.3950   -0.8910    0.3510 C   0  0  0  0  0  0  0  0  0  0  0  0
   -3.3660    0.6340    1.5140 C   0  0  0  0  0  0  0  0  0  0  0  0
   -2.1490    0.5860    0.8990 C   0  0  0  0  0  0  0  0  0  0  0  0
    0.3820    0.4860   -0.4070 N   0  0  0  0  0  0  0  0  0  0  0  0
   -5.7830   -0.1460    1.3110 N   0  0  0  0  0  0  0  0  0  0  0  0
   -5.5410   -1.2170   -0.5740 N   0  0  0  0  0  0  0  0  0  0  0  0
    1.3040    2.9210    0.9380 O   0  0  0  0  0  0  0  0  0  0  0  0
    5.1810   -0.9500    1.8380 O   0  0  0  0  0  0  0  0  0  0  0  0
   -0.5340   -0.7280   -2.0260 O   0  0  0  0  0  0  0  0  0  0  0  0
    1.2510    3.7140   -1.1240 O   0  0  0  0  0  0  0  0  0  0  0  0
    3.2130    1.9700   -1.4270 H   0  0  0  0  0  0  0  0  0  0  0  0
    4.3220    1.5560    0.6120 H   0  0  0  0  0  0  0  0  0  0  0  0
    2.7910    1.3250    1.5060 H   0  0  0  0  0  0  0  0  0  0  0  0
    4.8100   -3.3950    0.9810 H   0  0  0  0  0  0  0  0  0  0  0  0
    3.1350   -4.0740   -0.6920 H   0  0  0  0  0  0  0  0  0  0  0  0
    1.6480   -2.3940   -1.6960 H   0  0  0  0  0  0  0  0  0  0  0  0
    1.5760    0.4260   -2.1430 H   0  0  0  0  0  0  0  0  0  0  0  0
   -2.9580   -1.2740   -1.8320 H   0  0  0  0  0  0  0  0  0  0  0  0
   -7.4380   -1.1710    0.3570 H   0  0  0  0  0  0  0  0  0  0  0  0
   -3.4780    1.1670    2.4470 H   0  0  0  0  0  0  0  0  0  0  0  0
   -1.3020    1.0820    1.3480 H   0  0  0  0  0  0  0  0  0  0  0  0
    0.2720    0.9580    0.4330 H   0  0  0  0  0  0  0  0  0  0  0  0
   -6.2000    0.2210    2.1070 H   0  0  0  0  0  0  0  0  0  0  0  0
    4.8590   -0.9780    2.7500 H   0  0  0  0  0  0  0  0  0  0  0  0
    0.6870    4.4340   -0.8100 H   0  0  0  0  0  0  0  0  0  0  0  0
  5 23  1  0  0  0  0
  5  6  2  0  0  0  0
  6  7  1  0  0  0  0
  4  5  1  0  0  0  0
  7  8  2  0  0  0  0
  3  4  1  0  0  0  0
  4  9  2  0  0  0  0
  2  3  1  0  0  0  0
  8  9  1  0  0  0  0
  9 10  1  0  0  0  0
 11 24  2  0  0  0  0
  2 10  1  0  0  0  0
 10 19  1  0  0  0  0
  1  2  1  0  0  0  0
 11 19  1  0  0  0  0
 11 12  1  0  0  0  0
  1 22  2  0  0  0  0
  1 25  1  0  0  0  0
 12 13  2  0  0  0  0
 13 14  1  0  0  0  0
 12 18  1  0  0  0  0
 14 21  1  0  0  0  0
 14 15  2  0  0  0  0
 16 21  2  0  0  0  0
 17 18  2  0  0  0  0
 15 17  1  0  0  0  0
 15 20  1  0  0  0  0
 16 20  1  0  0  0  0
  2 26  1  0  0  0  0
  3 27  1  0  0  0  0
  3 28  1  0  0  0  0
  6 29  1  0  0  0  0
  7 30  1  0  0  0  0
  8 31  1  0  0  0  0
 10 32  1  0  0  0  0
 13 33  1  0  0  0  0
 16 34  1  0  0  0  0
 17 35  1  0  0  0  0
 18 36  1  0  0  0  0
 19 37  1  0  0  0  0
 20 38  1  0  0  0  0
 23 39  1  0  0  0  0
 25 40  1  0  0  0  0
M  END
> <OPENEYE_ISO_SMILES>
c1cc2c(c(c1)O)C[C@@H]([C@@H]2NC(=O)c3ccc4c(c3)nc[nH]4)C(=O)O

> <OPENEYE_INCHI>
InChI=1S/C18H15N3O4/c22-15-3-1-2-10-11(15)7-12(18(24)25)16(10)21-17(23)9-4-5-13-14(6-9)20-8-19-13/h1-6,8,12,16,22H,7H2,(H,19,20)(H,21,23)(H,24,25)/t12-,16+/m0/s1

> <OPENEYE_INCHIKEY>
KTTMBKKRQWCTBJ-BLLLJJGKSA-N

> <FORMULA>
C18H15N3O4

$$$$
