VWD
  -OEChem-02242320043D

 25 25  0     1  0  0  0  0  0999 V2000
    1.6010    0.0050   -0.2590 C   0  0  0  0  0  0  0  0  0  0  0  0
    2.2980    1.1540   -0.5830 C   0  0  0  0  0  0  0  0  0  0  0  0
    3.6290    1.2770   -0.2280 C   0  0  0  0  0  0  0  0  0  0  0  0
    4.2620    0.2520    0.4490 C   0  0  0  0  0  0  0  0  0  0  0  0
    3.5640   -0.8960    0.7730 C   0  0  0  0  0  0  0  0  0  0  0  0
   -3.3210    0.6880    1.5720 C   0  0  0  0  0  0  0  0  0  0  0  0
   -2.4780    0.1370    0.0630 S   0  0  0  0  0  0  0  0  0  0  0  0
   -2.7660   -1.2390   -0.1400 O   0  0  0  0  0  0  0  0  0  0  0  0
   -2.7580    1.0660   -0.9760 O   0  0  0  0  0  0  0  0  0  0  0  0
   -0.7320    0.2990    0.5290 C   0  0  0  0  0  0  0  0  0  0  0  0
    0.1500   -0.1290   -0.6450 C   0  0  2  0  0  0  0  0  0  0  0  0
   -0.1290   -1.4900   -0.9790 O   0  0  0  0  0  0  0  0  0  0  0  0
    2.2350   -1.0220    0.4140 C   0  0  0  0  0  0  0  0  0  0  0  0
    1.8040    1.9550   -1.1120 H   0  0  0  0  0  0  0  0  0  0  0  0
    4.1740    2.1750   -0.4820 H   0  0  0  0  0  0  0  0  0  0  0  0
    5.3010    0.3490    0.7260 H   0  0  0  0  0  0  0  0  0  0  0  0
    4.0600   -1.6990    1.2990 H   0  0  0  0  0  0  0  0  0  0  0  0
   -3.0370    0.0410    2.4030 H   0  0  0  0  0  0  0  0  0  0  0  0
   -3.0310    1.7140    1.7960 H   0  0  0  0  0  0  0  0  0  0  0  0
   -4.3990    0.6380    1.4250 H   0  0  0  0  0  0  0  0  0  0  0  0
   -0.5190    1.3380    0.7830 H   0  0  0  0  0  0  0  0  0  0  0  0
   -0.5250   -0.3360    1.3900 H   0  0  0  0  0  0  0  0  0  0  0  0
   -0.0570    0.5060   -1.5070 H   0  0  0  0  0  0  0  0  0  0  0  0
    0.0330   -2.1140   -0.2570 H   0  0  0  0  0  0  0  0  0  0  0  0
    1.6900   -1.9190    0.6670 H   0  0  0  0  0  0  0  0  0  0  0  0
  5 13  2  0  0  0  0
  4  5  1  0  0  0  0
  1 13  1  0  0  0  0
  7  9  2  0  0  0  0
  3  4  2  0  0  0  0
  1 11  1  0  0  0  0
  1  2  2  0  0  0  0
 11 12  1  0  0  0  0
 10 11  1  0  0  0  0
  7  8  2  0  0  0  0
  7 10  1  0  0  0  0
  6  7  1  0  0  0  0
  2  3  1  0  0  0  0
  2 14  1  0  0  0  0
  3 15  1  0  0  0  0
  4 16  1  0  0  0  0
  5 17  1  0  0  0  0
  6 18  1  0  0  0  0
  6 19  1  0  0  0  0
  6 20  1  0  0  0  0
 10 21  1  0  0  0  0
 10 22  1  0  0  0  0
 11 23  1  0  0  0  0
 12 24  1  0  0  0  0
 13 25  1  0  0  0  0
M  END
> <OPENEYE_ISO_SMILES>
CS(=O)(=O)C[C@@H](c1ccccc1)O

> <OPENEYE_INCHI>
InChI=1S/C9H12O3S/c1-13(11,12)7-9(10)8-5-3-2-4-6-8/h2-6,9-10H,7H2,1H3/t9-/m0/s1

> <OPENEYE_INCHIKEY>
FVZQEVNJWREWHU-VIFPVBQESA-N

> <FORMULA>
C9H12O3S

$$$$
