@<TRIPOS>MOLECULE
/home/pku/3cl/gett_pdb/7ODN/7ODN_mol2/ligand/7ODN_GTP.pdb
 41 43 0 0 0
SMALL
GASTEIGER

@<TRIPOS>ATOM
      1  PG        29.4650   20.2590   23.3690 P.3   501  GTP501      0.5373
      2  O1G       29.3890   18.7580   23.2410 O.2   501  GTP501     -0.2221
      3  O2G       30.1460   20.6150   24.6570 O.3   501  GTP501     -0.1143
      4  O3G       28.1140   20.9140   23.2830 O.3   501  GTP501     -0.1143
      5  O3B       30.3520   20.8970   22.1790 O.3   501  GTP501     -0.2258
      6  PB        30.8470   20.0730   20.8830 P.3   501  GTP501      0.2277
      7  O1B       31.6280   21.0510   20.0400 O.2   501  GTP501     -0.5168
      8  O2B       31.6700   18.8810   21.3150 O.3   501  GTP501     -0.4368
      9  O3A       29.4780   19.6680   20.1390 O.3   501  GTP501     -0.2700
     10  PA        29.3600   19.1300   18.6300 P.3   501  GTP501      0.2189
     11  O1A       30.5510   19.4410   17.7570 O.2   501  GTP501     -0.5170
     12  O2A       29.0560   17.6580   18.6570 O.3   501  GTP501     -0.4371
     13  O5'       28.0990   19.9780   18.1150 O.3   501  GTP501     -0.3116
     14  C5'       27.0260   19.3610   17.4540 C.3   501  GTP501      0.1743
     15  C4'       27.0070   19.7260   15.9830 C.3   501  GTP501      0.1280
     16  O4'       28.1880   19.2710   15.3370 O.3   501  GTP501     -0.3447
     17  C3'       25.8610   19.0510   15.2720 C.3   501  GTP501      0.1526
     18  O3'       25.3970   19.9150   14.2790 O.3   501  GTP501     -0.2255
     19  C2'       26.4660   17.8370   14.6200 C.3   501  GTP501      0.1319
     20  O2'       25.7430   17.4930   13.4770 O.3   501  GTP501     -0.3845
     21  C1'       27.8820   18.3150   14.3320 C.3   501  GTP501      0.1668
     22  N9        28.8770   17.2500   14.4030 N.ar  501  GTP501     -0.2854
     23  C8        29.2610   16.5710   15.5080 C.ar  501  GTP501      0.1005
     24  N7        30.2120   15.6860   15.1660 N.ar  501  GTP501     -0.2286
     25  C5        30.4590   15.7900   13.8580 C.ar  501  GTP501      0.1721
     26  C6        31.3340   15.1380   13.0140 C.ar  501  GTP501      0.2803
     27  O6        32.0850   14.2610   13.4240 O.2   501  GTP501     -0.2654
     28  N1        31.3500   15.4790   11.6980 N.ar  501  GTP501     -0.2934
     29  C2        30.5170   16.4540   11.2480 C.ar  501  GTP501      0.1950
     30  N2        30.5340   16.7860    9.9750 N.pl3 501  GTP501     -0.3289
     31  N3        29.6640   17.0980   12.0890 N.ar  501  GTP501     -0.1963
     32  C4        29.6300   16.7740   13.3770 C.ar  501  GTP501      0.1712
     33  H4'       26.9220   20.8120   15.9330 H     501  GTP501      0.0656
     34  H3'       25.0370   18.7960   15.9380 H     501  GTP501      0.0683
     35  H2'       26.4530   16.9230   15.2150 H     501  GTP501      0.0667
     36 HO2'       26.3470   17.4610   12.7050 H     501  GTP501      0.2101
     37  H1'       27.9030   18.7100   13.3160 H     501  GTP501      0.0866
     38  H8        28.8630   16.7170   16.5120 H     501  GTP501      0.1030
     39  HN1       31.9950   14.9960   11.0400 H     501  GTP501      0.1716
     40 HN21       29.9160   17.5140    9.6320 H     501  GTP501      0.1451
     41 HN22       31.1660   16.3140    9.3360 H     501  GTP501      0.1451
@<TRIPOS>BOND
     1    41    30    1
     2    40    30    1
     3    30    29    1
     4    39    28    1
     5    29    28   ar
     6    29    31   ar
     7    28    26   ar
     8    31    32   ar
     9    36    20    1
    10    26    27    2
    11    26    25   ar
    12    37    21    1
    13    32    25   ar
    14    32    22   ar
    15    20    19    1
    16    25    24   ar
    17    18    17    1
    18    21    22    1
    19    21    19    1
    20    21    16    1
    21    22    23   ar
    22    19    35    1
    23    19    17    1
    24    24    23   ar
    25    17    34    1
    26    17    15    1
    27    16    15    1
    28    23    38    1
    29    33    15    1
    30    15    14    1
    31    14    13    1
    32    11    10    2
    33    13    10    1
    34    10    12    1
    35    10     9    1
    36     7     6    2
    37     9     6    1
    38     6     8    1
    39     6     5    1
    40     5     1    1
    41     2     1    2
    42     4     1    1
    43     1     3    1
