YHI
  -OEChem-02242320043D

 62 65  0     1  0  0  0  0  0999 V2000
    7.6990    1.8400    0.9210 C   0  0  0  0  0  0  0  0  0  0  0  0
   -0.2050   -2.8320   -0.3780 C   0  0  1  0  0  0  0  0  0  0  0  0
    1.9560   -2.7110   -1.8530 C   0  0  0  0  0  0  0  0  0  0  0  0
   -3.5190   -0.2560    1.2820 C   0  0  2  0  0  0  0  0  0  0  0  0
   -4.7690    0.2460    0.5560 C   0  0  0  0  0  0  0  0  0  0  0  0
   -3.9290    2.6290    0.4970 C   0  0  0  0  0  0  0  0  0  0  0  0
    0.9700   -3.1690    0.5640 C   0  0  2  0  0  0  0  0  0  0  0  0
    1.5420   -1.8050    1.0070 C   0  0  0  0  0  0  0  0  0  0  0  0
    1.1240   -0.8620   -0.0560 N   0  0  0  0  0  0  0  0  0  0  0  0
    1.8370    0.1480   -0.5930 C   0  0  0  0  0  0  0  0  0  0  0  0
    3.0890    0.3910   -0.1630 O   0  0  0  0  0  0  0  0  0  0  0  0
    3.7980    1.4940   -0.7870 C   0  0  0  0  0  0  0  0  0  0  0  0
    5.1740    1.6130   -0.1820 C   0  0  0  0  0  0  0  0  0  0  0  0
    6.2340    0.9210   -0.7360 C   0  0  0  0  0  0  0  0  0  0  0  0
    7.4960    1.0300   -0.1810 C   0  0  0  0  0  0  0  0  0  0  0  0
    6.6390    2.5350    1.4720 C   0  0  0  0  0  0  0  0  0  0  0  0
    5.3760    2.4220    0.9200 C   0  0  0  0  0  0  0  0  0  0  0  0
    1.3500    0.8390   -1.4660 O   0  0  0  0  0  0  0  0  0  0  0  0
   -0.2500   -1.2890   -0.4210 C   0  0  2  0  0  0  0  0  0  0  0  0
    1.0220   -3.5340   -0.9630 C   0  0  0  0  0  0  0  0  0  0  0  0
    0.8850   -5.0100   -1.3400 C   0  0  0  0  0  0  0  0  0  0  0  0
   -1.2400   -0.7640    0.5860 C   0  0  0  0  0  0  0  0  0  0  0  0
   -2.5570   -0.7660    0.3020 N   0  0  0  0  0  0  0  0  0  0  0  0
   -4.3960    1.4220   -0.3490 C   0  0  2  0  0  0  0  0  0  0  0  0
   -4.5030    3.8170   -0.3070 C   0  0  0  0  0  0  0  0  0  0  0  0
   -5.6540    3.2760   -1.0390 N   0  0  0  0  0  0  0  0  0  0  0  0
   -5.6160    1.9330   -1.0830 C   0  0  0  0  0  0  0  0  0  0  0  0
   -6.4400    1.2320   -1.6330 O   0  0  0  0  0  0  0  0  0  0  0  0
   -3.9060   -1.3770    2.2490 C   0  0  0  0  0  0  0  0  0  0  0  0
   -4.6010   -2.4020    1.5360 O   0  0  0  0  0  0  0  0  0  0  0  0
   -0.8510   -0.3400    1.6540 O   0  0  0  0  0  0  0  0  0  0  0  0
    8.6840    1.9250    1.3540 H   0  0  0  0  0  0  0  0  0  0  0  0
   -1.1550   -3.3640   -0.3250 H   0  0  0  0  0  0  0  0  0  0  0  0
    2.7820   -3.3370   -2.1900 H   0  0  0  0  0  0  0  0  0  0  0  0
    1.4030   -2.3430   -2.7180 H   0  0  0  0  0  0  0  0  0  0  0  0
    2.3470   -1.8660   -1.2860 H   0  0  0  0  0  0  0  0  0  0  0  0
   -3.0690    0.5660    1.8390 H   0  0  0  0  0  0  0  0  0  0  0  0
   -5.1860   -0.5600   -0.0480 H   0  0  0  0  0  0  0  0  0  0  0  0
   -5.5090    0.5710    1.2880 H   0  0  0  0  0  0  0  0  0  0  0  0
   -4.3580    2.5920    1.4980 H   0  0  0  0  0  0  0  0  0  0  0  0
   -2.8410    2.6770    0.5410 H   0  0  0  0  0  0  0  0  0  0  0  0
    0.9340   -3.9670    1.3060 H   0  0  0  0  0  0  0  0  0  0  0  0
    1.1190   -1.5090    1.9660 H   0  0  0  0  0  0  0  0  0  0  0  0
    2.6290   -1.8510    1.0670 H   0  0  0  0  0  0  0  0  0  0  0  0
    3.8870    1.3100   -1.8570 H   0  0  0  0  0  0  0  0  0  0  0  0
    3.2470    2.4200   -0.6210 H   0  0  0  0  0  0  0  0  0  0  0  0
    6.0780    0.2950   -1.6020 H   0  0  0  0  0  0  0  0  0  0  0  0
    8.3230    0.4830   -0.6090 H   0  0  0  0  0  0  0  0  0  0  0  0
    6.7970    3.1680    2.3330 H   0  0  0  0  0  0  0  0  0  0  0  0
    4.5480    2.9650    1.3510 H   0  0  0  0  0  0  0  0  0  0  0  0
   -0.5080   -0.9450   -1.4230 H   0  0  0  0  0  0  0  0  0  0  0  0
    0.6140   -5.5880   -0.4560 H   0  0  0  0  0  0  0  0  0  0  0  0
    0.1090   -5.1210   -2.0980 H   0  0  0  0  0  0  0  0  0  0  0  0
    1.8330   -5.3740   -1.7350 H   0  0  0  0  0  0  0  0  0  0  0  0
   -2.8690   -1.1060   -0.5520 H   0  0  0  0  0  0  0  0  0  0  0  0
   -3.6190    1.1270   -1.0550 H   0  0  0  0  0  0  0  0  0  0  0  0
   -4.8250    4.6090    0.3690 H   0  0  0  0  0  0  0  0  0  0  0  0
   -3.0060   -1.7940    2.7000 H   0  0  0  0  0  0  0  0  0  0  0  0
   -4.5520   -0.9760    3.0300 H   0  0  0  0  0  0  0  0  0  0  0  0
   -4.8770   -3.1470    2.0870 H   0  0  0  0  0  0  0  0  0  0  0  0
   -3.7560    4.1960   -1.0050 H   0  0  0  0  0  0  0  0  0  0  0  0
   -6.3510    3.8170   -1.4400 H   0  0  0  0  0  0  0  0  0  0  0  0
  7  8  1  0  0  0  0
  7 20  1  0  0  0  0
  2  7  1  0  0  0  0
  8  9  1  0  0  0  0
 20 21  1  0  0  0  0
 16 17  2  0  0  0  0
  1 16  1  0  0  0  0
 13 17  1  0  0  0  0
  2 20  1  0  0  0  0
  3 20  1  0  0  0  0
  1 15  2  0  0  0  0
  2 19  1  0  0  0  0
 11 12  1  0  0  0  0
 10 11  1  0  0  0  0
 12 13  1  0  0  0  0
 13 14  2  0  0  0  0
 22 31  2  0  0  0  0
  9 10  1  0  0  0  0
  9 19  1  0  0  0  0
 14 15  1  0  0  0  0
 10 18  2  0  0  0  0
 19 22  1  0  0  0  0
 22 23  1  0  0  0  0
  4 23  1  0  0  0  0
  6 25  1  0  0  0  0
  6 24  1  0  0  0  0
  4 29  1  0  0  0  0
  4  5  1  0  0  0  0
 25 26  1  0  0  0  0
 29 30  1  0  0  0  0
  5 24  1  0  0  0  0
 24 27  1  0  0  0  0
 26 27  1  0  0  0  0
 27 28  2  0  0  0  0
  1 32  1  0  0  0  0
  2 33  1  0  0  0  0
  3 34  1  0  0  0  0
  3 35  1  0  0  0  0
  3 36  1  0  0  0  0
  4 37  1  0  0  0  0
  5 38  1  0  0  0  0
  5 39  1  0  0  0  0
  6 40  1  0  0  0  0
  6 41  1  0  0  0  0
  7 42  1  0  0  0  0
  8 43  1  0  0  0  0
  8 44  1  0  0  0  0
 12 45  1  0  0  0  0
 12 46  1  0  0  0  0
 14 47  1  0  0  0  0
 15 48  1  0  0  0  0
 16 49  1  0  0  0  0
 17 50  1  0  0  0  0
 19 51  1  0  0  0  0
 21 52  1  0  0  0  0
 21 53  1  0  0  0  0
 21 54  1  0  0  0  0
 23 55  1  0  0  0  0
 24 56  1  0  0  0  0
 25 57  1  0  0  0  0
 29 58  1  0  0  0  0
 29 59  1  0  0  0  0
 30 60  1  0  0  0  0
 25 61  1  0  0  0  0
 26 62  1  0  0  0  0
M  END
> <OPENEYE_ISO_SMILES>
CC1([C@@H]2[C@H]1[C@H](N(C2)C(=O)OCc3ccccc3)C(=O)N[C@@H](C[C@@H]4CCNC4=O)CO)C

> <OPENEYE_INCHI>
InChI=1S/C23H31N3O5/c1-23(2)17-11-26(22(30)31-13-14-6-4-3-5-7-14)19(18(17)23)21(29)25-16(12-27)10-15-8-9-24-20(15)28/h3-7,15-19,27H,8-13H2,1-2H3,(H,24,28)(H,25,29)/t15-,16-,17-,18-,19-/m0/s1

> <OPENEYE_INCHIKEY>
KXNVRILCTPCDNL-VMXHOPILSA-N

> <FORMULA>
C23H31N3O5

$$$$
