ZQD
  -OEChem-02242320043D

 29 30  0     1  0  0  0  0  0999 V2000
    1.9580    1.4960   -0.8220 C   0  0  0  0  0  0  0  0  0  0  0  0
    2.8360   -1.2340    1.4370 C   0  0  0  0  0  0  0  0  0  0  0  0
   -4.6660   -0.6140    0.3150 C   0  0  0  0  0  0  0  0  0  0  0  0
   -3.2230   -0.2660    0.0590 C   0  0  0  0  0  0  0  0  0  0  0  0
   -2.3840    0.3830    0.9020 C   0  0  0  0  0  0  0  0  0  0  0  0
   -1.1660    0.4500    0.1860 C   0  0  0  0  0  0  0  0  0  0  0  0
   -1.3790   -0.1340   -0.9570 N   0  0  0  0  0  0  0  0  0  0  0  0
   -2.5130   -0.5430   -1.0440 O   0  0  0  0  0  0  0  0  0  0  0  0
    0.1230    1.0750    0.6550 C   0  0  2  0  0  0  0  0  0  0  0  0
    0.1340    2.5790    0.3070 C   0  0  0  0  0  0  0  0  0  0  0  0
    1.6070    2.8280   -0.1120 C   0  0  0  0  0  0  0  0  0  0  0  0
    1.2600    0.4580   -0.0420 N   0  0  3  0  0  0  0  0  0  0  0  0
    1.6880   -1.1400    0.0360 S   0  0  0  0  0  0  0  0  0  0  0  0
    2.3720   -1.3800   -1.1860 O   0  0  0  0  0  0  0  0  0  0  0  0
    0.4740   -1.8130    0.3400 O   0  0  0  0  0  0  0  0  0  0  0  0
    1.5940    1.5070   -1.8490 H   0  0  0  0  0  0  0  0  0  0  0  0
    3.0340    1.3270   -0.8030 H   0  0  0  0  0  0  0  0  0  0  0  0
    2.3300   -0.9040    2.3440 H   0  0  0  0  0  0  0  0  0  0  0  0
    3.1720   -2.2630    1.5630 H   0  0  0  0  0  0  0  0  0  0  0  0
    3.6960   -0.5920    1.2460 H   0  0  0  0  0  0  0  0  0  0  0  0
   -5.3030    0.2010   -0.0290 H   0  0  0  0  0  0  0  0  0  0  0  0
   -4.9210   -1.5270   -0.2250 H   0  0  0  0  0  0  0  0  0  0  0  0
   -4.8190   -0.7690    1.3830 H   0  0  0  0  0  0  0  0  0  0  0  0
   -2.5960    0.7610    1.8910 H   0  0  0  0  0  0  0  0  0  0  0  0
    0.2300    0.9410    1.7310 H   0  0  0  0  0  0  0  0  0  0  0  0
   -0.5430    2.7880   -0.5210 H   0  0  0  0  0  0  0  0  0  0  0  0
   -0.1290    3.1780    1.1780 H   0  0  0  0  0  0  0  0  0  0  0  0
    2.2400    2.9840    0.7610 H   0  0  0  0  0  0  0  0  0  0  0  0
    1.6800    3.6690   -0.8010 H   0  0  0  0  0  0  0  0  0  0  0  0
  1 11  1  0  0  0  0
 10 11  1  0  0  0  0
  1 12  1  0  0  0  0
  9 10  1  0  0  0  0
  9 12  1  0  0  0  0
  6  9  1  0  0  0  0
 12 13  1  0  0  0  0
  2 13  1  0  0  0  0
  6  7  2  0  0  0  0
  7  8  1  0  0  0  0
  5  6  1  0  0  0  0
 13 15  2  0  0  0  0
 13 14  2  0  0  0  0
  4  8  1  0  0  0  0
  4  5  2  0  0  0  0
  3  4  1  0  0  0  0
  1 16  1  0  0  0  0
  1 17  1  0  0  0  0
  2 18  1  0  0  0  0
  2 19  1  0  0  0  0
  2 20  1  0  0  0  0
  3 21  1  0  0  0  0
  3 22  1  0  0  0  0
  3 23  1  0  0  0  0
  5 24  1  0  0  0  0
  9 25  1  0  0  0  0
 10 26  1  0  0  0  0
 10 27  1  0  0  0  0
 11 28  1  0  0  0  0
 11 29  1  0  0  0  0
M  END
> <OPENEYE_ISO_SMILES>
Cc1cc(no1)[C@@H]2CCCN2S(=O)(=O)C

> <OPENEYE_INCHI>
InChI=1S/C9H14N2O3S/c1-7-6-8(10-14-7)9-4-3-5-11(9)15(2,12)13/h6,9H,3-5H2,1-2H3/t9-/m0/s1

> <OPENEYE_INCHIKEY>
IUKADXXFBFQTOO-VIFPVBQESA-N

> <FORMULA>
C9H14N2O3S

$$$$
