@<TRIPOS>MOLECULE
/home/pku/3cl/gett_pdb/5SOU/5SOU_mol2/ligand/5SOU_WX7.pdb
 35 38 0 0 0
SMALL
GASTEIGER

@<TRIPOS>ATOM
      1  C10      -43.6900  -28.8990    2.2890 C.3   201  WX7201      0.0015
      2  C13      -45.1650  -29.3540    4.3410 C.3   201  WX7201      0.1875
      3  C15      -44.1700  -29.5510    6.4100 C.2   201  WX7201      0.1048
      4  C17      -46.4750  -29.1960    6.3370 C.ar  201  WX7201      0.1286
      5  C20      -47.7650  -28.9520    4.5790 C.ar  201  WX7201     -0.0355
      6  C21      -46.4280  -29.1750    4.9730 C.ar  201  WX7201      0.0397
      7  C02      -44.3210  -33.2900    1.1720 C.ar  201  WX7201      0.4355
      8  C05      -45.0900  -31.2530    0.4810 C.ar  201  WX7201      0.2229
      9  C07      -45.6130  -29.7520    0.4620 C.3   201  WX7201      0.0500
     10  C08      -44.5300  -28.9420   -0.0470 C.3   201  WX7201     -0.0394
     11  C09      -43.8670  -28.1440    0.9670 C.3   201  WX7201     -0.0394
     12  C12      -46.1150  -29.3030    1.8580 C.3   201  WX7201      0.0127
     13  C19      -48.5420  -28.8630    5.7300 C.ar  201  WX7201      0.0038
     14  N03      -44.4050  -33.3150   -0.2720 N.ar  201  WX7201     -0.2084
     15  N04      -44.8720  -32.0710   -0.6930 N.ar  201  WX7201     -0.1344
     16  N11      -45.0070  -29.3270    2.9010 N.3   201  WX7201     -0.2708
     17  N14      -44.0800  -29.5310    5.0880 N.2   201  WX7201     -0.2432
     18  N16      -45.3230  -29.3950    7.0110 N.pl3 201  WX7201     -0.1859
     19  N18      -47.7510  -29.0100    6.7810 N.ar  201  WX7201     -0.3479
     20  O01      -43.9620  -34.1830    1.8620 O.2   201  WX7201     -0.2213
     21  O06      -44.7420  -32.0170    1.6170 O.2   201  WX7201     -0.3922
     22 H101      -43.1330  -29.8090    2.0760 H     201  WX7201      0.0427
     23 H102      -43.1390  -28.2930    2.9950 H     201  WX7201      0.0427
     24 H151      -43.2860  -29.6930    7.0180 H     201  WX7201      0.1015
     25 H201      -48.1150  -28.8690    3.5620 H     201  WX7201      0.0637
     26 H071      -46.4370  -29.6620   -0.2330 H     201  WX7201      0.0409
     27 H082      -43.7900  -29.5950   -0.5120 H     201  WX7201      0.0273
     28 H081      -44.9270  -28.2730   -0.7960 H     201  WX7201      0.0273
     29 H091      -42.8850  -27.8980    0.6020 H     201  WX7201      0.0278
     30 H092      -44.4280  -27.2240    1.1340 H     201  WX7201      0.0278
     31 H121      -46.9230  -29.9500    2.1790 H     201  WX7201      0.0435
     32 H122      -46.4960  -28.2870    1.7710 H     201  WX7201      0.0435
     33 H191      -49.6040  -28.7040    5.7610 H     201  WX7201      0.0807
     34 H031      -44.1710  -34.0880   -0.8660 H     201  WX7201      0.1954
     35 H181      -48.0410  -28.9910    7.7420 H     201  WX7201      0.1666
@<TRIPOS>BOND
     1    34    14    1
     2    28    10    1
     3    15    14   ar
     4    15     8   ar
     5    27    10    1
     6    14     7   ar
     7    26     9    1
     8    10     9    1
     9    10    11    1
    10     9     8    1
    11     9    12    1
    12     8    21   ar
    13    29    11    1
    14    11    30    1
    15    11     1    1
    16     7    21   ar
    17     7    20    2
    18    32    12    1
    19    12    31    1
    20    12    16    1
    21    22     1    1
    22     1    16    1
    23     1    23    1
    24    16     2    1
    25    25     5    1
    26     2     6    1
    27     2    17    1
    28     5     6   ar
    29     5    13   ar
    30     6     4   ar
    31    17     3    2
    32    13    33    1
    33    13    19   ar
    34     4    19   ar
    35     4    18    1
    36     3    18    1
    37     3    24    1
    38    19    35    1
