T7J
  -OEChem-02242320043D

 33 34  0     1  0  0  0  0  0999 V2000
    2.8630    0.2730   -1.3560 C   0  0  0  0  0  0  0  0  0  0  0  0
    1.6470    0.2730    1.0630 C   0  0  0  0  0  0  0  0  0  0  0  0
   -5.7090    1.2600    0.2400 C   0  0  0  0  0  0  0  0  0  0  0  0
   -4.2830    0.7820    0.1400 C   0  0  0  0  0  0  0  0  0  0  0  0
   -3.7680   -0.0590    1.1090 C   0  0  0  0  0  0  0  0  0  0  0  0
   -2.4620   -0.4990    1.0200 C   0  0  0  0  0  0  0  0  0  0  0  0
   -1.6660   -0.0960   -0.0440 C   0  0  0  0  0  0  0  0  0  0  0  0
   -0.0750   -1.8600   -0.1780 C   0  0  0  0  0  0  0  0  0  0  0  0
   -1.2050   -2.8560   -0.2300 C   0  0  0  0  0  0  0  0  0  0  0  0
    0.7540    0.4310   -0.1890 C   0  0  1  0  0  0  0  0  0  0  0  0
    1.5640    0.2000   -1.4250 C   0  0  0  0  0  0  0  0  0  0  0  0
   -2.1860    0.7490   -1.0160 C   0  0  0  0  0  0  0  0  0  0  0  0
   -3.4950    1.1810   -0.9240 C   0  0  0  0  0  0  0  0  0  0  0  0
   -0.3420   -0.5400   -0.1370 N   0  0  0  0  0  0  0  0  0  0  0  0
    1.0740   -2.2470   -0.1740 O   0  0  0  0  0  0  0  0  0  0  0  0
    3.5700    2.0390    0.3530 O   0  0  0  0  0  0  0  0  0  0  0  0
    4.2620   -0.3230    0.7000 O   0  0  0  0  0  0  0  0  0  0  0  0
    3.2900    0.6460    0.3290 S   0  0  0  0  0  0  0  0  0  0  0  0
    3.5550    0.1280   -2.1720 H   0  0  0  0  0  0  0  0  0  0  0  0
    1.3790    0.9940    1.8350 H   0  0  0  0  0  0  0  0  0  0  0  0
    1.6140   -0.7470    1.4470 H   0  0  0  0  0  0  0  0  0  0  0  0
   -5.7410    2.1910    0.8070 H   0  0  0  0  0  0  0  0  0  0  0  0
   -6.1060    1.4300   -0.7600 H   0  0  0  0  0  0  0  0  0  0  0  0
   -6.3100    0.5060    0.7470 H   0  0  0  0  0  0  0  0  0  0  0  0
   -4.3870   -0.3720    1.9370 H   0  0  0  0  0  0  0  0  0  0  0  0
   -2.0600   -1.1560    1.7780 H   0  0  0  0  0  0  0  0  0  0  0  0
   -1.5540   -3.0620    0.7820 H   0  0  0  0  0  0  0  0  0  0  0  0
   -2.0250   -2.4450   -0.8200 H   0  0  0  0  0  0  0  0  0  0  0  0
   -0.8540   -3.7800   -0.6890 H   0  0  0  0  0  0  0  0  0  0  0  0
    0.3420    1.4400   -0.2090 H   0  0  0  0  0  0  0  0  0  0  0  0
    1.0780   -0.0240   -2.3640 H   0  0  0  0  0  0  0  0  0  0  0  0
   -1.5700    1.0640   -1.8440 H   0  0  0  0  0  0  0  0  0  0  0  0
   -3.9020    1.8350   -1.6810 H   0  0  0  0  0  0  0  0  0  0  0  0
  3  4  1  0  0  0  0
  4  5  2  0  0  0  0
  5  6  1  0  0  0  0
  6  7  2  0  0  0  0
  8 15  2  0  0  0  0
  8  9  1  0  0  0  0
  8 14  1  0  0  0  0
 10 14  1  0  0  0  0
 10 11  1  0  0  0  0
  1 11  2  0  0  0  0
  1 18  1  0  0  0  0
 16 18  2  0  0  0  0
 17 18  2  0  0  0  0
  2 18  1  0  0  0  0
  7 14  1  0  0  0  0
  7 12  1  0  0  0  0
 12 13  2  0  0  0  0
  4 13  1  0  0  0  0
  2 10  1  0  0  0  0
  1 19  1  0  0  0  0
  2 20  1  0  0  0  0
  2 21  1  0  0  0  0
  3 22  1  0  0  0  0
  3 23  1  0  0  0  0
  3 24  1  0  0  0  0
  5 25  1  0  0  0  0
  6 26  1  0  0  0  0
  9 27  1  0  0  0  0
  9 28  1  0  0  0  0
  9 29  1  0  0  0  0
 10 30  1  0  0  0  0
 11 31  1  0  0  0  0
 12 32  1  0  0  0  0
 13 33  1  0  0  0  0
M  END
> <OPENEYE_ISO_SMILES>
Cc1ccc(cc1)N([C@H]2CS(=O)(=O)C=C2)C(=O)C

> <OPENEYE_INCHI>
InChI=1S/C13H15NO3S/c1-10-3-5-12(6-4-10)14(11(2)15)13-7-8-18(16,17)9-13/h3-8,13H,9H2,1-2H3/t13-/m1/s1

> <OPENEYE_INCHIKEY>
PPKLPLWDJXRWSL-CYBMUJFWSA-N

> <FORMULA>
C13H15NO3S

$$$$
