@<TRIPOS>MOLECULE
/home/pku/3cl/gett_pdb/5RGZ/5RGZ_mol2/ligand/5RGZ_UH1.pdb
 18 19 0 0 0
SMALL
GASTEIGER

@<TRIPOS>ATOM
      1  N1         7.4380   -0.4030   21.0590 N.am  1001  UH11001    -0.1773
      2  C4        12.4600    0.4210   24.2050 C.ar  1001  UH11001     0.0004
      3  C5        13.3320   -0.1580   23.2990 C.ar  1001  UH11001     0.0103
      4  C6        12.8270   -0.8960   22.2310 C.ar  1001  UH11001     0.0681
      5  C7        13.7210   -1.4570   21.2500 C.1   1001  UH11001     0.1004
      6  C8        11.4510   -1.0600   22.0830 C.ar  1001  UH11001     0.0065
      7  C10        5.5410    0.8390   20.1680 C.ar  1001  UH11001     0.0198
      8  C13        7.1820   -0.0150   18.6640 C.ar  1001  UH11001     0.1154
      9  N         14.4550   -1.8960   20.4930 N.1   1001  UH11001    -0.1908
     10  C3        11.0920    0.2640   24.0500 C.ar  1001  UH11001    -0.0037
     11  C2        10.5740   -0.4740   22.9910 C.ar  1001  UH11001    -0.0124
     12  C1         9.0820   -0.6180   22.8050 C.3   1001  UH11001     0.1135
     13  C          8.5920    0.0890   21.5560 C.2   1001  UH11001     0.2500
     14  O          9.1970    1.0390   21.0600 O.2   1001  UH11001    -0.2726
     15  C9         6.7060    0.1080   19.9690 C.ar  1001  UH11001     0.0925
     16  N2         6.5900    0.5510   17.6060 N.ar  1001  UH11001    -0.2410
     17  C12        5.4750    1.2570   17.8280 C.ar  1001  UH11001     0.0990
     18  C11        4.9150    1.4270   19.0830 C.ar  1001  UH11001     0.0220
@<TRIPOS>BOND
     1    16    17   ar
     2    16     8   ar
     3    17    18   ar
     4     8    15   ar
     5    18     7   ar
     6    15     7   ar
     7    15     1    1
     8     9     5    3
     9     1    13   am
    10    14    13    2
    11     5     4    1
    12    13    12    1
    13     6     4   ar
    14     6    11   ar
    15     4     3   ar
    16    12    11    1
    17    11    10   ar
    18     3     2   ar
    19    10     2   ar
