S7G
  -OEChem-02242320043D

 28 29  0     1  0  0  0  0  0999 V2000
   -0.6650   -1.6320    0.2800 N   0  0  0  0  0  0  0  0  0  0  0  0
   -1.7030   -0.7130    0.0940 C   0  0  0  0  0  0  0  0  0  0  0  0
   -3.0000   -1.1820   -0.0830 C   0  0  0  0  0  0  0  0  0  0  0  0
   -4.0370   -0.2920   -0.2720 C   0  0  0  0  0  0  0  0  0  0  0  0
   -3.7850    1.0680   -0.2850 C   0  0  0  0  0  0  0  0  0  0  0  0
   -2.4980    1.5370   -0.1080 C   0  0  0  0  0  0  0  0  0  0  0  0
   -0.0620    1.1960    0.2830 C   0  0  0  0  0  0  0  0  0  0  0  0
    2.3090    0.6010    0.3730 N   0  0  0  0  0  0  0  0  0  0  0  0
    4.7760    0.5950    0.1880 C   0  0  0  0  0  0  0  0  0  0  0  0
    3.3050   -0.7390   -1.0880 O   0  0  0  0  0  0  0  0  0  0  0  0
    3.4120    0.1040   -0.2220 C   0  0  0  0  0  0  0  0  0  0  0  0
    0.9830    0.1230   -0.0260 C   0  0  1  0  0  0  0  0  0  0  0  0
    0.6360   -1.1480    0.7610 C   0  0  0  0  0  0  0  0  0  0  0  0
   -1.4510    0.6500    0.0850 C   0  0  0  0  0  0  0  0  0  0  0  0
   -0.8030   -2.5750    0.0990 H   0  0  0  0  0  0  0  0  0  0  0  0
   -3.1950   -2.2440   -0.0730 H   0  0  0  0  0  0  0  0  0  0  0  0
   -5.0440   -0.6560   -0.4100 H   0  0  0  0  0  0  0  0  0  0  0  0
   -4.5960    1.7650   -0.4340 H   0  0  0  0  0  0  0  0  0  0  0  0
   -2.3060    2.6000   -0.1190 H   0  0  0  0  0  0  0  0  0  0  0  0
    0.0530    1.5230    1.3170 H   0  0  0  0  0  0  0  0  0  0  0  0
    0.0870    2.0460   -0.3820 H   0  0  0  0  0  0  0  0  0  0  0  0
    2.3940    1.2750    1.0650 H   0  0  0  0  0  0  0  0  0  0  0  0
    4.6720    1.3450    0.9720 H   0  0  0  0  0  0  0  0  0  0  0  0
    5.3660   -0.2420    0.5610 H   0  0  0  0  0  0  0  0  0  0  0  0
    5.2770    1.0370   -0.6730 H   0  0  0  0  0  0  0  0  0  0  0  0
    0.9790   -0.0930   -1.0940 H   0  0  0  0  0  0  0  0  0  0  0  0
    0.5750   -0.9180    1.8250 H   0  0  0  0  0  0  0  0  0  0  0  0
    1.3990   -1.9070    0.5900 H   0  0  0  0  0  0  0  0  0  0  0  0
  3  4  2  0  0  0  0
  2  3  1  0  0  0  0
  4  5  1  0  0  0  0
  5  6  2  0  0  0  0
  1  2  1  0  0  0  0
  1 13  1  0  0  0  0
  2 14  2  0  0  0  0
  6 14  1  0  0  0  0
 12 13  1  0  0  0  0
  7 14  1  0  0  0  0
  8 12  1  0  0  0  0
  8 11  1  0  0  0  0
  9 11  1  0  0  0  0
  7 12  1  0  0  0  0
 10 11  2  0  0  0  0
  1 15  1  0  0  0  0
  3 16  1  0  0  0  0
  4 17  1  0  0  0  0
  5 18  1  0  0  0  0
  6 19  1  0  0  0  0
  7 20  1  0  0  0  0
  7 21  1  0  0  0  0
  8 22  1  0  0  0  0
  9 23  1  0  0  0  0
  9 24  1  0  0  0  0
  9 25  1  0  0  0  0
 12 26  1  0  0  0  0
 13 27  1  0  0  0  0
 13 28  1  0  0  0  0
M  END
> <OPENEYE_ISO_SMILES>
CC(=O)N[C@@H]1Cc2ccccc2NC1

> <OPENEYE_INCHI>
InChI=1S/C11H14N2O/c1-8(14)13-10-6-9-4-2-3-5-11(9)12-7-10/h2-5,10,12H,6-7H2,1H3,(H,13,14)/t10-/m1/s1

> <OPENEYE_INCHIKEY>
HCEIEGOMGWEGOJ-SNVBAGLBSA-N

> <FORMULA>
C11H14N2O

$$$$
