W57
  -OEChem-02242320043D

 28 30  0     0  0  0  0  0  0999 V2000
    1.4980    0.4670   -0.9370 C   0  0  0  0  0  0  0  0  0  0  0  0
   -1.3790    1.7910   -0.3770 C   0  0  0  0  0  0  0  0  0  0  0  0
   -3.0940    0.7580    0.7800 C   0  0  0  0  0  0  0  0  0  0  0  0
   -2.6790   -0.4960    0.2990 C   0  0  0  0  0  0  0  0  0  0  0  0
   -2.3110   -2.5440   -0.2550 C   0  0  0  0  0  0  0  0  0  0  0  0
   -1.5560   -0.5480   -0.5570 C   0  0  0  0  0  0  0  0  0  0  0  0
    0.2450    0.6210   -1.7610 C   0  0  0  0  0  0  0  0  0  0  0  0
    2.0970   -0.6940   -0.5870 C   0  0  0  0  0  0  0  0  0  0  0  0
    3.2220   -0.2830    0.1750 C   0  0  0  0  0  0  0  0  0  0  0  0
    5.2010   -0.4420    1.4790 C   0  0  0  0  0  0  0  0  0  0  0  0
   -4.1800    0.8570    1.6140 N   0  0  0  0  0  0  0  0  0  0  0  0
   -3.1020   -1.7620    0.4480 N   0  0  0  0  0  0  0  0  0  0  0  0
   -1.3760   -1.8230   -0.8640 N   0  0  0  0  0  0  0  0  0  0  0  0
   -0.9230    0.6310   -0.8770 N   0  0  0  0  0  0  0  0  0  0  0  0
    3.1860    1.0230    0.2030 N   0  0  0  0  0  0  0  0  0  0  0  0
   -2.4180    1.8510    0.4160 N   0  0  0  0  0  0  0  0  0  0  0  0
    4.1490   -1.0850    0.7570 O   0  0  0  0  0  0  0  0  0  0  0  0
    2.2390    1.4530   -0.4130 O   0  0  0  0  0  0  0  0  0  0  0  0
   -0.8680    2.7060   -0.6350 H   0  0  0  0  0  0  0  0  0  0  0  0
   -2.4070   -3.6180   -0.3260 H   0  0  0  0  0  0  0  0  0  0  0  0
    0.2890    1.5580   -2.3160 H   0  0  0  0  0  0  0  0  0  0  0  0
    0.1650   -0.2120   -2.4600 H   0  0  0  0  0  0  0  0  0  0  0  0
    1.7910   -1.7010   -0.8300 H   0  0  0  0  0  0  0  0  0  0  0  0
    5.8710   -1.1960    1.8930 H   0  0  0  0  0  0  0  0  0  0  0  0
    5.7590    0.2090    0.8060 H   0  0  0  0  0  0  0  0  0  0  0  0
    4.7770    0.1500    2.2890 H   0  0  0  0  0  0  0  0  0  0  0  0
   -4.6660    0.0600    1.8750 H   0  0  0  0  0  0  0  0  0  0  0  0
   -4.4610    1.7260    1.9420 H   0  0  0  0  0  0  0  0  0  0  0  0
 10 17  1  0  0  0  0
  9 17  1  0  0  0  0
  8  9  1  0  0  0  0
  1  8  2  0  0  0  0
  9 15  2  0  0  0  0
  1  7  1  0  0  0  0
  1 18  1  0  0  0  0
 15 18  1  0  0  0  0
  7 14  1  0  0  0  0
  2 14  1  0  0  0  0
  2 16  2  0  0  0  0
  6 14  1  0  0  0  0
  3 16  1  0  0  0  0
  6 13  2  0  0  0  0
  4  6  1  0  0  0  0
  5 13  1  0  0  0  0
  3  4  2  0  0  0  0
  3 11  1  0  0  0  0
  4 12  1  0  0  0  0
  5 12  2  0  0  0  0
  2 19  1  0  0  0  0
  5 20  1  0  0  0  0
  7 21  1  0  0  0  0
  7 22  1  0  0  0  0
  8 23  1  0  0  0  0
 10 24  1  0  0  0  0
 10 25  1  0  0  0  0
 10 26  1  0  0  0  0
 11 27  1  0  0  0  0
 11 28  1  0  0  0  0
M  END
> <OPENEYE_ISO_SMILES>
COc1cc(on1)Cn2cnc(c-3ncnc23)N

> <OPENEYE_INCHI>
InChI=1S/C10H10N6O2/c1-17-7-2-6(18-15-7)3-16-5-14-9(11)8-10(16)13-4-12-8/h2,4-5H,3,11H2,1H3

> <OPENEYE_INCHIKEY>
QLMLRFCQHHBNLC-UHFFFAOYSA-N

> <FORMULA>
C10H10N6O2

$$$$
