@<TRIPOS>MOLECULE
/home/pku/3cl/gett_pdb/7FRC/7FRC_mol2/ligand/7FRC_WXX.pdb
 53 55 0 0 0
SMALL
GASTEIGER

@<TRIPOS>ATOM
      1  C17      -44.8700  -29.0350    3.2690 C.3   201  WXX201      0.1866
      2  C14      -44.4450  -34.1640   -0.8400 C.3   201  WXX201     -0.0502
      3  C13      -44.3090  -35.2390   -1.9080 C.3   201  WXX201     -0.0528
      4  C12      -45.5110  -35.2530   -2.8260 C.3   201  WXX201     -0.0530
      5  C11      -46.2220  -33.9380   -2.8220 C.3   201  WXX201     -0.0528
      6  C10      -46.7350  -33.5180   -1.4230 C.3   201  WXX201     -0.0502
      7  C19      -43.9910  -29.3030    5.3870 C.2   201  WXX201      0.1048
      8  C01      -43.3570  -26.2680    0.8830 C.3   201  WXX201     -0.0638
      9  C02      -43.3420  -27.6530    0.2330 C.3   201  WXX201     -0.0389
     10  C03      -43.3350  -28.7840    1.2620 C.3   201  WXX201      0.0254
     11  C04      -42.9720  -30.1010    0.5740 C.3   201  WXX201      0.0271
     12  C06      -43.9870  -32.1090    1.7830 C.2   201  WXX201      0.2131
     13  C07      -45.2920  -32.0300    0.9930 C.3   201  WXX201      0.0242
     14  C08      -46.0210  -33.3700    0.9710 C.3   201  WXX201     -0.0419
     15  C09      -45.8800  -34.1370   -0.3450 C.3   201  WXX201     -0.0406
     16  C21      -46.3000  -29.1510    5.2000 C.ar  201  WXX201      0.1461
     17  C22      -46.1750  -29.0200    3.8290 C.ar  201  WXX201      0.0591
     18  C23      -47.5180  -28.8890    3.3370 C.ar  201  WXX201      0.0580
     19  N05      -42.9070  -31.1710    1.5540 N.am  201  WXX201     -0.3138
     20  N16      -44.6650  -28.8940    1.8380 N.3   201  WXX201     -0.2813
     21  N18      -43.8260  -29.1760    4.0740 N.2   201  WXX201     -0.2433
     22  N20      -45.1840  -29.2910    5.9510 N.pl3 201  WXX201     -0.1845
     23  N24      -48.3470  -28.9460    4.3650 N.ar  201  WXX201     -0.1802
     24  N25      -47.6180  -29.1030    5.4810 N.ar  201  WXX201     -0.2623
     25  O15      -43.8410  -32.9470    2.6060 O.2   201  WXX201     -0.2758
     26 H142      -44.2110  -33.2980   -1.2220 H     201  WXX201      0.0268
     27 H141      -43.8710  -34.3690   -0.1010 H     201  WXX201      0.0268
     28 H132      -43.5260  -35.0690   -2.4370 H     201  WXX201      0.0265
     29 H131      -44.2570  -36.1020   -1.4820 H     201  WXX201      0.0265
     30 H121      -45.2450  -35.4260   -3.7340 H     201  WXX201      0.0265
     31 H122      -46.1550  -35.9140   -2.5380 H     201  WXX201      0.0265
     32 H111      -46.9640  -34.1350   -3.4120 H     201  WXX201      0.0265
     33 H112      -45.6970  -33.2160   -3.2350 H     201  WXX201      0.0265
     34 H102      -47.6600  -33.8280   -1.3070 H     201  WXX201      0.0268
     35 H101      -46.7210  -32.5330   -1.3290 H     201  WXX201      0.0268
     36 H191      -43.2430  -29.4000    5.9200 H     201  WXX201      0.1015
     37 H013      -43.3350  -25.5850    0.1940 H     201  WXX201      0.0230
     38 H011      -42.5810  -26.1700    1.4570 H     201  WXX201      0.0230
     39 H012      -44.1640  -26.1650    1.4120 H     201  WXX201      0.0230
     40 H022      -42.5530  -27.7300   -0.3250 H     201  WXX201      0.0278
     41 H021      -44.1310  -27.7460   -0.3250 H     201  WXX201      0.0278
     42 H031      -42.6790  -28.5860    1.9520 H     201  WXX201      0.0476
     43 H042      -42.0990  -30.0180    0.1600 H     201  WXX201      0.0477
     44 H041      -43.6240  -30.3030   -0.1140 H     201  WXX201      0.0477
     45 H071      -45.8700  -31.3710    1.4050 H     201  WXX201      0.0358
     46 H072      -45.1020  -31.7590    0.0840 H     201  WXX201      0.0358
     47 H081      -45.6770  -33.9230    1.6850 H     201  WXX201      0.0272
     48 H082      -46.9570  -33.2140    1.1350 H     201  WXX201      0.0272
     49 H091      -46.1910  -35.0430   -0.2280 H     201  WXX201      0.0301
     50 H231      -47.7660  -28.7830    2.4510 H     201  WXX201      0.0852
     51 H051      -42.2020  -31.2590    2.0230 H     201  WXX201      0.1487
     52 H161      -45.3440  -28.8700    1.3220 H     201  WXX201      0.1249
     53 H251      -47.9440  -29.1690    6.2720 H     201  WXX201      0.1903
@<TRIPOS>BOND
     1    30     4    1
     2    32     5    1
     3    33     5    1
     4     4     5    1
     5     4    31    1
     6     4     3    1
     7     5     6    1
     8    28     3    1
     9     3    29    1
    10     3     2    1
    11     6    35    1
    12     6    34    1
    13     6    15    1
    14    26     2    1
    15     2    15    1
    16     2    27    1
    17    15    49    1
    18    15    14    1
    19    40     9    1
    20    41     9    1
    21    44    11    1
    22    46    13    1
    23    43    11    1
    24    37     8    1
    25     9     8    1
    26     9    10    1
    27    11    10    1
    28    11    19    1
    29     8    39    1
    30     8    38    1
    31    14    13    1
    32    14    48    1
    33    14    47    1
    34    13    45    1
    35    13    12    1
    36    10    20    1
    37    10    42    1
    38    52    20    1
    39    19    12   am
    40    19    51    1
    41    12    25    2
    42    20     1    1
    43    50    18    1
    44     1    17    1
    45     1    21    1
    46    18    17   ar
    47    18    23   ar
    48    17    16   ar
    49    21     7    2
    50    23    24   ar
    51    16    24   ar
    52    16    22    1
    53     7    36    1
    54     7    22    1
    55    24    53    1
