U1V
  -OEChem-02242320043D

 23 23  0     0  0  0  0  0  0999 V2000
    2.3180    1.3770    0.2650 C   0  0  0  0  0  0  0  0  0  0  0  0
    1.0080    1.2860    0.6940 C   0  0  0  0  0  0  0  0  0  0  0  0
    0.3660    0.0610    0.6980 C   0  0  0  0  0  0  0  0  0  0  0  0
   -1.0640   -0.0380    1.1660 C   0  0  0  0  0  0  0  0  0  0  0  0
   -3.6980    0.0700    0.4040 N   0  0  0  0  0  0  0  0  0  0  0  0
    0.3310   -2.4050    0.2760 C   0  0  0  0  0  0  0  0  0  0  0  0
   -2.1130    1.5430   -0.7100 O   0  0  0  0  0  0  0  0  0  0  0  0
    1.0330   -1.0720    0.2720 C   0  0  0  0  0  0  0  0  0  0  0  0
    2.3430   -0.9830   -0.1570 C   0  0  0  0  0  0  0  0  0  0  0  0
    2.9860    0.2440   -0.1660 C   0  0  0  0  0  0  0  0  0  0  0  0
    4.2670    0.3320   -0.5860 F   0  0  0  0  0  0  0  0  0  0  0  0
   -2.0870   -0.8920   -1.1450 O   0  0  0  0  0  0  0  0  0  0  0  0
   -2.1800    0.2020   -0.2440 S   0  0  0  0  0  0  0  0  0  0  0  0
    2.8200    2.3340    0.2630 H   0  0  0  0  0  0  0  0  0  0  0  0
    0.4860    2.1700    1.0260 H   0  0  0  0  0  0  0  0  0  0  0  0
   -1.2360   -1.0210    1.6020 H   0  0  0  0  0  0  0  0  0  0  0  0
   -1.2540    0.7310    1.9150 H   0  0  0  0  0  0  0  0  0  0  0  0
   -3.8070   -0.1000    1.3520 H   0  0  0  0  0  0  0  0  0  0  0  0
   -4.4780    0.1640   -0.1650 H   0  0  0  0  0  0  0  0  0  0  0  0
    0.4880   -2.8960    1.2370 H   0  0  0  0  0  0  0  0  0  0  0  0
   -0.7370   -2.2550    0.1150 H   0  0  0  0  0  0  0  0  0  0  0  0
    0.7340   -3.0310   -0.5210 H   0  0  0  0  0  0  0  0  0  0  0  0
    2.8650   -1.8680   -0.4890 H   0  0  0  0  0  0  0  0  0  0  0  0
  6  8  1  0  0  0  0
  8  9  1  0  0  0  0
  9 10  2  0  0  0  0
 10 11  1  0  0  0  0
  1 10  1  0  0  0  0
  1  2  2  0  0  0  0
  2  3  1  0  0  0  0
  3  8  2  0  0  0  0
  3  4  1  0  0  0  0
  4 13  1  0  0  0  0
  7 13  2  0  0  0  0
 12 13  2  0  0  0  0
  5 13  1  0  0  0  0
  1 14  1  0  0  0  0
  2 15  1  0  0  0  0
  4 16  1  0  0  0  0
  4 17  1  0  0  0  0
  5 18  1  0  0  0  0
  5 19  1  0  0  0  0
  6 20  1  0  0  0  0
  6 21  1  0  0  0  0
  6 22  1  0  0  0  0
  9 23  1  0  0  0  0
M  END
> <OPENEYE_ISO_SMILES>
Cc1cc(ccc1CS(=O)(=O)N)F

> <OPENEYE_INCHI>
InChI=1S/C8H10FNO2S/c1-6-4-8(9)3-2-7(6)5-13(10,11)12/h2-4H,5H2,1H3,(H2,10,11,12)

> <OPENEYE_INCHIKEY>
NSTXYAFVZNXQTB-UHFFFAOYSA-N

> <FORMULA>
C8H10FNO2S

$$$$
