I2D
  -OEChem-02242320023D

 48 51  0     0  0  0  0  0  0999 V2000
    0.1760   -3.9310   -0.3800 C   0  0  0  0  0  0  0  0  0  0  0  0
    0.2060   -2.8190    0.4430 C   0  0  0  0  0  0  0  0  0  0  0  0
   -0.9750   -2.2720    0.9080 C   0  0  0  0  0  0  0  0  0  0  0  0
   -0.9440   -1.0610    1.8040 C   0  0  0  0  0  0  0  0  0  0  0  0
    0.5990    0.5490    0.7170 C   0  0  0  0  0  0  0  0  0  0  0  0
    0.8250    1.5890   -0.1760 C   0  0  0  0  0  0  0  0  0  0  0  0
    2.1130    1.9990   -0.4480 C   0  0  0  0  0  0  0  0  0  0  0  0
    3.1890    1.3690    0.1740 C   0  0  0  0  0  0  0  0  0  0  0  0
    4.5770    1.8090   -0.1170 C   0  0  0  0  0  0  0  0  0  0  0  0
    5.7180    1.2850    0.4170 C   0  0  0  0  0  0  0  0  0  0  0  0
    4.9560    2.8400   -0.9990 C   0  0  0  0  0  0  0  0  0  0  0  0
    2.9610    0.3260    1.0690 C   0  0  0  0  0  0  0  0  0  0  0  0
    1.6710   -0.0800    1.3380 C   0  0  0  0  0  0  0  0  0  0  0  0
   -1.7530    0.8460    0.5210 C   0  0  0  0  0  0  0  0  0  0  0  0
   -3.1560    0.3220    0.6870 C   0  0  0  0  0  0  0  0  0  0  0  0
   -4.1310    1.2920    0.0700 C   0  0  0  0  0  0  0  0  0  0  0  0
   -4.4940    1.1700   -1.2630 C   0  0  0  0  0  0  0  0  0  0  0  0
   -5.3940    2.0850   -1.7880 C   0  0  0  0  0  0  0  0  0  0  0  0
   -5.8950    3.0810   -0.9720 C   0  0  0  0  0  0  0  0  0  0  0  0
   -4.6780    2.3110    0.8260 C   0  0  0  0  0  0  0  0  0  0  0  0
   -2.1860   -2.8360    0.5510 C   0  0  0  0  0  0  0  0  0  0  0  0
   -2.2160   -3.9480   -0.2710 C   0  0  0  0  0  0  0  0  0  0  0  0
   -1.0350   -4.4950   -0.7370 C   0  0  0  0  0  0  0  0  0  0  0  0
   -0.7090    0.1380    0.9960 N   0  0  0  0  0  0  0  0  0  0  0  0
    6.7610    1.9620   -0.1040 N   0  0  0  0  0  0  0  0  0  0  0  0
    6.2600    2.9270   -0.9860 N   0  0  0  0  0  0  0  0  0  0  0  0
   -5.5270    3.1670    0.2910 N   0  0  0  0  0  0  0  0  0  0  0  0
   -1.5630    1.9050   -0.0400 O   0  0  0  0  0  0  0  0  0  0  0  0
    1.6600   -4.6130   -0.9700 Cl  0  0  0  0  0  0  0  0  0  0  0  0
    1.1510   -2.3780    0.7220 H   0  0  0  0  0  0  0  0  0  0  0  0
   -1.8980   -0.9680    2.3230 H   0  0  0  0  0  0  0  0  0  0  0  0
   -0.1420   -1.1700    2.5340 H   0  0  0  0  0  0  0  0  0  0  0  0
   -0.0100    2.0760   -0.6580 H   0  0  0  0  0  0  0  0  0  0  0  0
    2.2880    2.8070   -1.1430 H   0  0  0  0  0  0  0  0  0  0  0  0
    5.7750    0.4750    1.1290 H   0  0  0  0  0  0  0  0  0  0  0  0
    4.2850    3.4510   -1.5850 H   0  0  0  0  0  0  0  0  0  0  0  0
    3.7940   -0.1630    1.5520 H   0  0  0  0  0  0  0  0  0  0  0  0
    1.4940   -0.8880    2.0330 H   0  0  0  0  0  0  0  0  0  0  0  0
   -3.2440   -0.6450    0.1920 H   0  0  0  0  0  0  0  0  0  0  0  0
   -3.3790    0.2090    1.7480 H   0  0  0  0  0  0  0  0  0  0  0  0
   -4.0860    0.3810   -1.8770 H   0  0  0  0  0  0  0  0  0  0  0  0
   -5.6990    2.0200   -2.8220 H   0  0  0  0  0  0  0  0  0  0  0  0
   -6.5960    3.7980   -1.3730 H   0  0  0  0  0  0  0  0  0  0  0  0
   -4.4000    2.4130    1.8650 H   0  0  0  0  0  0  0  0  0  0  0  0
   -3.1090   -2.4090    0.9140 H   0  0  0  0  0  0  0  0  0  0  0  0
   -3.1620   -4.3880   -0.5490 H   0  0  0  0  0  0  0  0  0  0  0  0
   -1.0580   -5.3630   -1.3790 H   0  0  0  0  0  0  0  0  0  0  0  0
    7.6970    1.8060    0.0960 H   0  0  0  0  0  0  0  0  0  0  0  0
 19 27  2  0  0  0  0
 20 27  1  0  0  0  0
 18 19  1  0  0  0  0
 16 20  2  0  0  0  0
 17 18  2  0  0  0  0
 16 17  1  0  0  0  0
 15 16  1  0  0  0  0
  1 29  1  0  0  0  0
 14 15  1  0  0  0  0
 14 28  2  0  0  0  0
 14 24  1  0  0  0  0
  1 23  2  0  0  0  0
  1  2  1  0  0  0  0
 22 23  1  0  0  0  0
  2  3  2  0  0  0  0
 21 22  2  0  0  0  0
  4 24  1  0  0  0  0
  5 24  1  0  0  0  0
  3 21  1  0  0  0  0
  3  4  1  0  0  0  0
  5 13  2  0  0  0  0
 12 13  1  0  0  0  0
  5  6  1  0  0  0  0
  8 12  2  0  0  0  0
  6  7  2  0  0  0  0
  7  8  1  0  0  0  0
  8  9  1  0  0  0  0
  9 10  2  0  0  0  0
  9 11  1  0  0  0  0
 10 25  1  0  0  0  0
 11 26  2  0  0  0  0
 25 26  1  0  0  0  0
  2 30  1  0  0  0  0
  4 31  1  0  0  0  0
  4 32  1  0  0  0  0
  6 33  1  0  0  0  0
  7 34  1  0  0  0  0
 10 35  1  0  0  0  0
 11 36  1  0  0  0  0
 12 37  1  0  0  0  0
 13 38  1  0  0  0  0
 15 39  1  0  0  0  0
 15 40  1  0  0  0  0
 17 41  1  0  0  0  0
 18 42  1  0  0  0  0
 19 43  1  0  0  0  0
 20 44  1  0  0  0  0
 21 45  1  0  0  0  0
 22 46  1  0  0  0  0
 23 47  1  0  0  0  0
 25 48  1  0  0  0  0
M  END
> <OPENEYE_ISO_SMILES>
c1cc(cc(c1)Cl)CN(c2ccc(cc2)c3c[nH]nc3)C(=O)Cc4cccnc4

> <OPENEYE_INCHI>
InChI=1S/C23H19ClN4O/c24-21-5-1-3-18(11-21)16-28(23(29)12-17-4-2-10-25-13-17)22-8-6-19(7-9-22)20-14-26-27-15-20/h1-11,13-15H,12,16H2,(H,26,27)

> <OPENEYE_INCHIKEY>
LLFIKGDQQRLTFJ-UHFFFAOYSA-N

> <FORMULA>
C23H19ClN4O

$$$$
