W6S
  -OEChem-02242320043D

 24 25  0     0  0  0  0  0  0999 V2000
    3.0270   -0.5770    0.6880 C   0  0  0  0  0  0  0  0  0  0  0  0
    1.6890   -0.7770    0.7400 C   0  0  0  0  0  0  0  0  0  0  0  0
    1.0910    0.0660   -0.2020 C   0  0  0  0  0  0  0  0  0  0  0  0
   -0.3860    0.1720   -0.4810 C   0  0  0  0  0  0  0  0  0  0  0  0
   -1.0250    1.1520    0.5070 C   0  0  0  0  0  0  0  0  0  0  0  0
   -2.5340    1.2090    0.2580 C   0  0  0  0  0  0  0  0  0  0  0  0
   -2.5460   -1.0790   -0.5400 C   0  0  0  0  0  0  0  0  0  0  0  0
   -1.0380   -1.2040   -0.3160 C   0  0  0  0  0  0  0  0  0  0  0  0
   -3.1100   -0.1310    0.4290 N   0  0  0  0  0  0  0  0  0  0  0  0
    2.0350    0.7470   -0.7990 N   0  0  0  0  0  0  0  0  0  0  0  0
    3.2660    0.3630   -0.2510 N   0  0  0  0  0  0  0  0  0  0  0  0
    3.7690   -1.0760    1.2920 H   0  0  0  0  0  0  0  0  0  0  0  0
    1.1750   -1.4650    1.3950 H   0  0  0  0  0  0  0  0  0  0  0  0
   -0.5400    0.5290   -1.4990 H   0  0  0  0  0  0  0  0  0  0  0  0
   -0.8360    0.8160    1.5260 H   0  0  0  0  0  0  0  0  0  0  0  0
   -0.5950    2.1440    0.3650 H   0  0  0  0  0  0  0  0  0  0  0  0
   -2.9930    1.8950    0.9690 H   0  0  0  0  0  0  0  0  0  0  0  0
   -2.7210    1.5580   -0.7570 H   0  0  0  0  0  0  0  0  0  0  0  0
   -2.7340   -0.7190   -1.5520 H   0  0  0  0  0  0  0  0  0  0  0  0
   -3.0150   -2.0540   -0.4090 H   0  0  0  0  0  0  0  0  0  0  0  0
   -0.6170   -1.8960   -1.0450 H   0  0  0  0  0  0  0  0  0  0  0  0
   -0.8500   -1.5770    0.6910 H   0  0  0  0  0  0  0  0  0  0  0  0
   -4.1160   -0.1020    0.3640 H   0  0  0  0  0  0  0  0  0  0  0  0
    4.1360    0.7060   -0.5060 H   0  0  0  0  0  0  0  0  0  0  0  0
 10 11  1  0  0  0  0
  1 11  1  0  0  0  0
  3 10  2  0  0  0  0
  1  2  2  0  0  0  0
  7  8  1  0  0  0  0
  4  8  1  0  0  0  0
  2  3  1  0  0  0  0
  3  4  1  0  0  0  0
  7  9  1  0  0  0  0
  4  5  1  0  0  0  0
  5  6  1  0  0  0  0
  6  9  1  0  0  0  0
  1 12  1  0  0  0  0
  2 13  1  0  0  0  0
  4 14  1  0  0  0  0
  5 15  1  0  0  0  0
  5 16  1  0  0  0  0
  6 17  1  0  0  0  0
  6 18  1  0  0  0  0
  7 19  1  0  0  0  0
  7 20  1  0  0  0  0
  8 21  1  0  0  0  0
  8 22  1  0  0  0  0
  9 23  1  0  0  0  0
 11 24  1  0  0  0  0
M  END
> <OPENEYE_ISO_SMILES>
c1c[nH]nc1C2CCNCC2

> <OPENEYE_INCHI>
InChI=1S/C8H13N3/c1-4-9-5-2-7(1)8-3-6-10-11-8/h3,6-7,9H,1-2,4-5H2,(H,10,11)

> <OPENEYE_INCHIKEY>
FCKYIGWJVZIPLK-UHFFFAOYSA-N

> <FORMULA>
C8H13N3

$$$$
