@<TRIPOS>MOLECULE
/home/pku/3cl/gett_pdb/5SOY/5SOY_mol2/ligand/5SOY_WXS.pdb
 26 28 0 0 0
SMALL
GASTEIGER

@<TRIPOS>ATOM
      1  C10      -45.6650  -29.2720    3.2400 C.3   201  WXS201      0.1936
      2  C01      -47.2420  -28.1920    0.0250 C.3   201  WXS201     -0.0028
      3  C02      -46.4060  -27.0360    0.4090 C.ar  201  WXS201      0.1480
      4  C04      -46.0680  -24.8600    0.4940 C.ar  201  WXS201      0.5206
      5  C07      -45.1540  -26.8250    0.9860 C.ar  201  WXS201      0.1597
      6  C08      -44.0620  -27.7070    1.5060 C.3   201  WXS201      0.0580
      7  C12      -47.7800  -29.0120    4.1070 C.2   201  WXS201      0.1043
      8  C14      -46.1260  -29.2640    5.5600 C.ar  201  WXS201      0.1476
      9  C16      -44.1400  -29.5550    6.3960 C.ar  201  WXS201      0.0952
     10  C18      -45.1890  -29.3730    4.5460 C.ar  201  WXS201      0.1237
     11  N11      -46.9700  -29.1040    3.0320 N.2   201  WXS201     -0.2471
     12  N13      -47.4450  -29.0810    5.3910 N.pl3 201  WXS201     -0.1844
     13  N15      -45.4440  -29.3800    6.7330 N.ar  201  WXS201     -0.3314
     14  N17      -43.9260  -29.5600    5.1000 N.ar  201  WXS201     -0.2354
     15  O03      -46.9420  -25.8170    0.1120 O.2   201  WXS201     -0.3959
     16  O05      -46.2680  -23.6630    0.3800 O.2   201  WXS201     -0.2021
     17  O06      -44.9650  -25.4630    1.0380 O.2   201  WXS201     -0.3948
     18  S09      -44.5640  -29.4140    1.8730 S.3   201  WXS201     -0.1134
     19 H011      -47.7190  -27.9590   -0.7900 H     201  WXS201      0.0309
     20 H013      -46.6820  -28.9620   -0.1330 H     201  WXS201      0.0309
     21 H012      -47.8880  -28.3960    0.7230 H     201  WXS201      0.0309
     22 H081      -43.3600  -27.7480    0.8340 H     201  WXS201      0.0458
     23 H082      -43.6530  -27.3120    2.3040 H     201  WXS201      0.0458
     24 H121      -48.6880  -28.8890    3.9380 H     201  WXS201      0.1015
     25 H161      -43.4590  -29.6660    7.0410 H     201  WXS201      0.1027
     26 H151      -45.7890  -29.3510    7.5470 H     201  WXS201      0.1680
@<TRIPOS>BOND
     1    19     2    1
     2    20     2    1
     3     2     3    1
     4     2    21    1
     5    15     3   ar
     6    15     4   ar
     7    16     4    2
     8     3     5   ar
     9     4    17   ar
    10    22     6    1
    11     5    17   ar
    12     5     6    1
    13     6    18    1
    14     6    23    1
    15    18     1    1
    16    11     1    1
    17    11     7    2
    18     1    10    1
    19    24     7    1
    20     7    12    1
    21    10    14   ar
    22    10     8   ar
    23    14     9   ar
    24    12     8    1
    25     8    13   ar
    26     9    13   ar
    27     9    25    1
    28    13    26    1
