QPL
  -OEChem-02242320033D

 44 47  0     1  0  0  0  0  0999 V2000
   -4.0260   -1.0120   -0.6150 C   0  0  0  0  0  0  0  0  0  0  0  0
   -2.4790   -2.7630    0.3060 C   0  0  0  0  0  0  0  0  0  0  0  0
   -3.3180   -1.5580    0.6430 C   0  0  1  0  0  0  0  0  0  0  0  0
   -2.4280   -0.3700    1.0640 C   0  0  2  0  0  0  0  0  0  0  0  0
   -0.0350    0.0920    1.0550 C   0  0  0  0  0  0  0  0  0  0  0  0
    1.3080   -0.0360    0.4540 C   0  0  0  0  0  0  0  0  0  0  0  0
   -4.8100    1.4630   -1.0710 C   0  0  0  0  0  0  0  0  0  0  0  0
   -4.0460    0.4910   -0.4370 C   0  0  0  0  0  0  0  0  0  0  0  0
    7.2400    0.8320   -0.0160 C   0  0  0  0  0  0  0  0  0  0  0  0
    5.7670    0.5140   -0.0550 C   0  0  0  0  0  0  0  0  0  0  0  0
    3.6640    0.4510    0.4850 C   0  0  0  0  0  0  0  0  0  0  0  0
    3.8170   -0.2950   -0.6970 C   0  0  0  0  0  0  0  0  0  0  0  0
    2.7130   -0.8970   -1.2910 C   0  0  0  0  0  0  0  0  0  0  0  0
    1.4770   -0.7720   -0.7260 C   0  0  0  0  0  0  0  0  0  0  0  0
   -4.6520    2.7990   -0.7370 C   0  0  0  0  0  0  0  0  0  0  0  0
   -3.7330    3.1630    0.2280 C   0  0  0  0  0  0  0  0  0  0  0  0
   -2.9730    2.1960    0.8580 C   0  0  0  0  0  0  0  0  0  0  0  0
   -3.1280    0.8600    0.5270 C   0  0  0  0  0  0  0  0  0  0  0  0
    2.4000    0.5780    1.0590 C   0  0  0  0  0  0  0  0  0  0  0  0
    4.8950    0.9170    0.8210 N   0  0  0  0  0  0  0  0  0  0  0  0
    5.1570   -0.2360   -1.0120 N   0  0  0  0  0  0  0  0  0  0  0  0
   -1.0950   -0.4970    0.4680 N   0  0  0  0  0  0  0  0  0  0  0  0
    7.8880    0.2250   -1.1360 O   0  0  0  0  0  0  0  0  0  0  0  0
   -1.2850   -2.7370    0.4820 O   0  0  0  0  0  0  0  0  0  0  0  0
   -3.0600   -3.8670   -0.1910 O   0  0  0  0  0  0  0  0  0  0  0  0
   -5.7130    1.1030   -2.0210 O   0  0  0  0  0  0  0  0  0  0  0  0
   -0.1840    0.7300    2.0800 O   0  0  0  0  0  0  0  0  0  0  0  0
   -3.4640   -1.2790   -1.5100 H   0  0  0  0  0  0  0  0  0  0  0  0
   -5.0420   -1.4010   -0.6770 H   0  0  0  0  0  0  0  0  0  0  0  0
   -4.0430   -1.7980    1.4220 H   0  0  0  0  0  0  0  0  0  0  0  0
   -2.3520   -0.3200    2.1510 H   0  0  0  0  0  0  0  0  0  0  0  0
    7.3800    1.9120   -0.0570 H   0  0  0  0  0  0  0  0  0  0  0  0
    7.6710    0.4450    0.9070 H   0  0  0  0  0  0  0  0  0  0  0  0
    2.8350   -1.4700   -2.1990 H   0  0  0  0  0  0  0  0  0  0  0  0
    0.6240   -1.2420   -1.1920 H   0  0  0  0  0  0  0  0  0  0  0  0
   -5.2460    3.5540   -1.2300 H   0  0  0  0  0  0  0  0  0  0  0  0
   -3.6080    4.2030    0.4890 H   0  0  0  0  0  0  0  0  0  0  0  0
   -2.2550    2.4840    1.6120 H   0  0  0  0  0  0  0  0  0  0  0  0
    2.2690    1.1490    1.9670 H   0  0  0  0  0  0  0  0  0  0  0  0
    5.5870   -0.6530   -1.7760 H   0  0  0  0  0  0  0  0  0  0  0  0
   -0.9760   -1.0060   -0.3490 H   0  0  0  0  0  0  0  0  0  0  0  0
    8.8400    0.3880   -1.1750 H   0  0  0  0  0  0  0  0  0  0  0  0
   -2.4810   -4.6150   -0.3930 H   0  0  0  0  0  0  0  0  0  0  0  0
   -6.5960    0.9170   -1.6730 H   0  0  0  0  0  0  0  0  0  0  0  0
  9 23  1  0  0  0  0
  9 10  1  0  0  0  0
 10 20  2  0  0  0  0
 11 20  1  0  0  0  0
 11 12  2  0  0  0  0
 12 21  1  0  0  0  0
 12 13  1  0  0  0  0
 13 14  2  0  0  0  0
  6 14  1  0  0  0  0
  4 22  1  0  0  0  0
  3  4  1  0  0  0  0
  2 24  2  0  0  0  0
  2 25  1  0  0  0  0
  2  3  1  0  0  0  0
  1  3  1  0  0  0  0
  1  8  1  0  0  0  0
  7  8  2  0  0  0  0
  7 26  1  0  0  0  0
  7 15  1  0  0  0  0
 15 16  2  0  0  0  0
 16 17  1  0  0  0  0
 17 18  2  0  0  0  0
  5 22  1  0  0  0  0
  5 27  2  0  0  0  0
  5  6  1  0  0  0  0
  6 19  2  0  0  0  0
 10 21  1  0  0  0  0
 11 19  1  0  0  0  0
  4 18  1  0  0  0  0
  8 18  1  0  0  0  0
  1 28  1  0  0  0  0
  1 29  1  0  0  0  0
  3 30  1  0  0  0  0
  4 31  1  0  0  0  0
  9 32  1  0  0  0  0
  9 33  1  0  0  0  0
 13 34  1  0  0  0  0
 14 35  1  0  0  0  0
 15 36  1  0  0  0  0
 16 37  1  0  0  0  0
 17 38  1  0  0  0  0
 19 39  1  0  0  0  0
 21 40  1  0  0  0  0
 22 41  1  0  0  0  0
 23 42  1  0  0  0  0
 25 43  1  0  0  0  0
 26 44  1  0  0  0  0
M  END
> <OPENEYE_ISO_SMILES>
c1cc2c(c(c1)O)C[C@H]([C@H]2NC(=O)c3ccc4c(c3)nc([nH]4)CO)C(=O)O

> <OPENEYE_INCHI>
InChI=1S/C19H17N3O5/c23-8-16-20-13-5-4-9(6-14(13)21-16)18(25)22-17-10-2-1-3-15(24)11(10)7-12(17)19(26)27/h1-6,12,17,23-24H,7-8H2,(H,20,21)(H,22,25)(H,26,27)/t12-,17+/m1/s1

> <OPENEYE_INCHIKEY>
CXHYRAPCOSLYMC-PXAZEXFGSA-N

> <FORMULA>
C19H17N3O5

$$$$
