QPX
  -OEChem-02242320033D

 44 47  0     1  0  0  0  0  0999 V2000
    7.4870   -0.0680    0.2010 C   0  0  0  0  0  0  0  0  0  0  0  0
    5.9840   -0.1330    0.1120 C   0  0  0  0  0  0  0  0  0  0  0  0
    3.8840    0.1350    0.5990 C   0  0  0  0  0  0  0  0  0  0  0  0
    3.9470   -0.5720   -0.6160 C   0  0  0  0  0  0  0  0  0  0  0  0
    2.7770   -0.9590   -1.2610 C   0  0  0  0  0  0  0  0  0  0  0  0
    1.5630   -0.6540   -0.7180 C   0  0  0  0  0  0  0  0  0  0  0  0
    1.4810    0.0500    0.4910 C   0  0  0  0  0  0  0  0  0  0  0  0
    0.1610    0.3730    1.0670 C   0  0  0  0  0  0  0  0  0  0  0  0
   -2.2740    0.3110    1.0010 C   0  0  1  0  0  0  0  0  0  0  0  0
   -2.7880    1.6550    0.4420 C   0  0  1  0  0  0  0  0  0  0  0  0
   -2.2070    1.9250   -0.9220 C   0  0  0  0  0  0  0  0  0  0  0  0
   -4.3110    1.4180    0.3570 C   0  0  0  0  0  0  0  0  0  0  0  0
   -4.4700   -0.0800    0.2010 C   0  0  0  0  0  0  0  0  0  0  0  0
   -5.5570   -0.8300   -0.2310 C   0  0  0  0  0  0  0  0  0  0  0  0
   -5.4680   -2.2120   -0.2920 C   0  0  0  0  0  0  0  0  0  0  0  0
   -4.2970   -2.8430    0.0790 C   0  0  0  0  0  0  0  0  0  0  0  0
   -3.2160   -2.0960    0.5090 C   0  0  0  0  0  0  0  0  0  0  0  0
   -3.3000   -0.7150    0.5710 C   0  0  0  0  0  0  0  0  0  0  0  0
    2.6410    0.4470    1.1480 C   0  0  0  0  0  0  0  0  0  0  0  0
    5.1640    0.3730    0.9860 N   0  0  0  0  0  0  0  0  0  0  0  0
    5.2870   -0.7230   -0.8970 N   0  0  0  0  0  0  0  0  0  0  0  0
   -0.9640   -0.0090    0.4300 N   0  0  0  0  0  0  0  0  0  0  0  0
    8.0600   -0.7210   -0.9340 O   0  0  0  0  0  0  0  0  0  0  0  0
   -2.8370    1.6440   -1.9140 O   0  0  0  0  0  0  0  0  0  0  0  0
   -0.9890    2.4780   -1.0350 O   0  0  0  0  0  0  0  0  0  0  0  0
   -6.7090   -0.2070   -0.5960 O   0  0  0  0  0  0  0  0  0  0  0  0
    0.0880    0.9840    2.1150 O   0  0  0  0  0  0  0  0  0  0  0  0
    7.8060    0.9740    0.2200 H   0  0  0  0  0  0  0  0  0  0  0  0
    7.8190   -0.5670    1.1120 H   0  0  0  0  0  0  0  0  0  0  0  0
    2.8300   -1.5010   -2.1930 H   0  0  0  0  0  0  0  0  0  0  0  0
    0.6590   -0.9570   -1.2240 H   0  0  0  0  0  0  0  0  0  0  0  0
   -2.2130    0.3520    2.0890 H   0  0  0  0  0  0  0  0  0  0  0  0
   -2.5610    2.4720    1.1270 H   0  0  0  0  0  0  0  0  0  0  0  0
   -4.7980    1.7570    1.2710 H   0  0  0  0  0  0  0  0  0  0  0  0
   -4.7270    1.9360   -0.5070 H   0  0  0  0  0  0  0  0  0  0  0  0
   -6.3130   -2.7940   -0.6280 H   0  0  0  0  0  0  0  0  0  0  0  0
   -4.2250   -3.9190    0.0340 H   0  0  0  0  0  0  0  0  0  0  0  0
   -2.3010   -2.5920    0.7980 H   0  0  0  0  0  0  0  0  0  0  0  0
    2.5790    0.9920    2.0790 H   0  0  0  0  0  0  0  0  0  0  0  0
    5.6650   -1.1680   -1.6720 H   0  0  0  0  0  0  0  0  0  0  0  0
   -0.9060   -0.4960   -0.4070 H   0  0  0  0  0  0  0  0  0  0  0  0
    9.0270   -0.7170   -0.9440 H   0  0  0  0  0  0  0  0  0  0  0  0
   -0.6590    2.6320   -1.9310 H   0  0  0  0  0  0  0  0  0  0  0  0
   -6.7490    0.0280   -1.5330 H   0  0  0  0  0  0  0  0  0  0  0  0
  1 23  1  0  0  0  0
  1  2  1  0  0  0  0
  2 20  2  0  0  0  0
  3 20  1  0  0  0  0
  3  4  2  0  0  0  0
  4 21  1  0  0  0  0
  4  5  1  0  0  0  0
  5  6  2  0  0  0  0
  6  7  1  0  0  0  0
  9 22  1  0  0  0  0
  9 10  1  0  0  0  0
 11 24  2  0  0  0  0
 11 25  1  0  0  0  0
 10 11  1  0  0  0  0
 10 12  1  0  0  0  0
 12 13  1  0  0  0  0
 13 14  2  0  0  0  0
 14 26  1  0  0  0  0
 14 15  1  0  0  0  0
 15 16  2  0  0  0  0
 16 17  1  0  0  0  0
 17 18  2  0  0  0  0
  8 22  1  0  0  0  0
  8 27  2  0  0  0  0
  7  8  1  0  0  0  0
  7 19  2  0  0  0  0
  2 21  1  0  0  0  0
  3 19  1  0  0  0  0
  9 18  1  0  0  0  0
 13 18  1  0  0  0  0
  1 28  1  0  0  0  0
  1 29  1  0  0  0  0
  5 30  1  0  0  0  0
  6 31  1  0  0  0  0
  9 32  1  0  0  0  0
 10 33  1  0  0  0  0
 12 34  1  0  0  0  0
 12 35  1  0  0  0  0
 15 36  1  0  0  0  0
 16 37  1  0  0  0  0
 17 38  1  0  0  0  0
 19 39  1  0  0  0  0
 21 40  1  0  0  0  0
 22 41  1  0  0  0  0
 23 42  1  0  0  0  0
 25 43  1  0  0  0  0
 26 44  1  0  0  0  0
M  END
> <OPENEYE_ISO_SMILES>
c1cc2c(c(c1)O)C[C@@H]([C@@H]2NC(=O)c3ccc4c(c3)nc([nH]4)CO)C(=O)O

> <OPENEYE_INCHI>
InChI=1S/C19H17N3O5/c23-8-16-20-13-5-4-9(6-14(13)21-16)18(25)22-17-10-2-1-3-15(24)11(10)7-12(17)19(26)27/h1-6,12,17,23-24H,7-8H2,(H,20,21)(H,22,25)(H,26,27)/t12-,17+/m0/s1

> <OPENEYE_INCHIKEY>
CXHYRAPCOSLYMC-YVEFUNNKSA-N

> <FORMULA>
C19H17N3O5

$$$$
