@<TRIPOS>MOLECULE
/home/pku/3cl/gett_pdb/7FR2/7FR2_mol2/ligand/7FR2_WWH.pdb
 53 55 0 0 0
SMALL
GASTEIGER

@<TRIPOS>ATOM
      1  C18      -46.4590  -32.9900    0.1930 C.3   201  WWH201      0.0242
      2  C16      -42.6030  -30.1710    0.6680 C.3   201  WWH201     -0.0359
      3  C17      -41.8780  -31.4680    0.3260 C.3   201  WWH201     -0.0636
      4  C14      -44.4420  -29.2570    5.8840 C.ar  201  WWH201      0.1205
      5  C12      -46.7510  -29.0300    6.0440 C.ar  201  WWH201      0.1627
      6  C10      -48.8520  -28.7810    5.5240 C.ar  201  WWH201      0.0957
      7  C20      -45.0710  -34.5850   -1.2560 C.3   201  WWH201     -0.0406
      8  C19      -46.2110  -34.4250   -0.2550 C.3   201  WWH201     -0.0419
      9  C02      -45.3440  -32.3810    1.0440 C.2   201  WWH201      0.2133
     10  C04      -43.8800  -30.3480    1.4870 C.3   201  WWH201      0.0383
     11  C05      -44.3880  -28.9400    1.8110 C.3   201  WWH201      0.0289
     12  C07      -45.6510  -29.0310    3.9410 C.ar  201  WWH201      0.1498
     13  C08      -46.8550  -28.9490    4.6900 C.ar  201  WWH201      0.1472
     14  C21      -45.1430  -35.9750   -1.8690 C.3   201  WWH201     -0.0502
     15  C22      -45.0700  -35.9310   -3.3920 C.3   201  WWH201     -0.0528
     16  C23      -43.9230  -35.0730   -3.8850 C.3   201  WWH201     -0.0530
     17  C24      -44.0240  -33.6620   -3.3360 C.3   201  WWH201     -0.0528
     18  C25      -45.1740  -33.5290   -2.3420 C.3   201  WWH201     -0.0502
     19  N03      -44.9120  -31.0330    0.7310 N.am  201  WWH201     -0.3110
     20  N06      -45.6620  -28.9530    2.5020 N.pl3 201  WWH201     -0.3255
     21  N09      -48.1660  -28.7860    4.3800 N.ar  201  WWH201     -0.2308
     22  N11      -48.0020  -28.9210    6.5430 N.ar  201  WWH201     -0.3292
     23  N13      -45.5300  -29.1910    6.6190 N.ar  201  WWH201     -0.2162
     24  N15      -44.4980  -29.1820    4.5690 N.ar  201  WWH201     -0.2186
     25  O01      -44.8540  -32.9870    1.9400 O.2   201  WWH201     -0.2758
     26 H181      -47.2640  -33.0010    0.7150 H     201  WWH201      0.0358
     27 H182      -46.6240  -32.4290   -0.5850 H     201  WWH201      0.0358
     28 H161      -42.8300  -29.7210   -0.1590 H     201  WWH201      0.0281
     29 H162      -41.9960  -29.6060    1.1700 H     201  WWH201      0.0281
     30 H173      -42.4630  -32.0370   -0.1960 H     201  WWH201      0.0230
     31 H172      -41.6240  -31.9220    1.1430 H     201  WWH201      0.0230
     32 H171      -41.0810  -31.2630   -0.1910 H     201  WWH201      0.0230
     33 H141      -43.6200  -29.3610    6.2950 H     201  WWH201      0.1048
     34 H101      -49.7680  -28.7110    5.5860 H     201  WWH201      0.1027
     35 H201      -44.2150  -34.4730   -0.8070 H     201  WWH201      0.0301
     36 H192      -46.0550  -34.9750    0.5220 H     201  WWH201      0.0272
     37 H191      -47.0120  -34.7490   -0.6700 H     201  WWH201      0.0272
     38 H041      -43.6950  -30.8350    2.3090 H     201  WWH201      0.0513
     39 H052      -44.5010  -28.4450    0.9900 H     201  WWH201      0.0480
     40 H051      -43.7370  -28.4780    2.3650 H     201  WWH201      0.0480
     41 H211      -44.4000  -36.4960   -1.5440 H     201  WWH201      0.0268
     42 H212      -45.9750  -36.3950   -1.6020 H     201  WWH201      0.0268
     43 H221      -44.8630  -36.8100   -3.6980 H     201  WWH201      0.0265
     44 H222      -45.9230  -35.6340   -3.7680 H     201  WWH201      0.0265
     45 H231      -43.9480  -35.0450   -4.8530 H     201  WWH201      0.0265
     46 H232      -43.0920  -35.4780   -3.5930 H     201  WWH201      0.0265
     47 H242      -44.1580  -33.0490   -4.0700 H     201  WWH201      0.0265
     48 H241      -43.1970  -33.4440   -2.8750 H     201  WWH201      0.0265
     49 H251      -46.0370  -33.5850   -2.8060 H     201  WWH201      0.0268
     50 H252      -45.0980  -32.6720   -1.9120 H     201  WWH201      0.0268
     51 H031      -45.2890  -30.6300    0.0780 H     201  WWH201      0.1490
     52 H061      -46.4070  -28.8990    2.0680 H     201  WWH201      0.1476
     53 H111      -48.2130  -28.9660    7.3710 H     201  WWH201      0.1682
@<TRIPOS>BOND
     1    45    16    1
     2    47    17    1
     3    16    46    1
     4    16    15    1
     5    16    17    1
     6    44    15    1
     7    43    15    1
     8    15    14    1
     9    17    48    1
    10    17    18    1
    11    49    18    1
    12    18    50    1
    13    18     7    1
    14    14    42    1
    15    14    41    1
    16    14     7    1
    17     7    35    1
    18     7     8    1
    19    37     8    1
    20    27     1    1
    21     8     1    1
    22     8    36    1
    23    30     3    1
    24    32     3    1
    25    28     2    1
    26    51    19    1
    27     1    26    1
    28     1     9    1
    29     3     2    1
    30     3    31    1
    31     2    29    1
    32     2    10    1
    33    19     9   am
    34    19    10    1
    35    39    11    1
    36     9    25    2
    37    10    11    1
    38    10    38    1
    39    11    40    1
    40    11    20    1
    41    52    20    1
    42    20    12    1
    43    12    24   ar
    44    12    13   ar
    45    21    13   ar
    46    21     6   ar
    47    24     4   ar
    48    13     5   ar
    49     6    34    1
    50     6    22   ar
    51     4    33    1
    52     4    23   ar
    53     5    22   ar
    54     5    23   ar
    55    22    53    1
