QNC
  -OEChem-02242320033D

 20 21  0     0  0  0  0  0  0999 V2000
    2.7650   -0.2010    0.0020 C   0  0  0  0  0  0  0  0  0  0  0  0
    3.6070    0.6740    0.0020 O   0  0  0  0  0  0  0  0  0  0  0  0
    0.4240   -0.8070    0.0010 N   0  0  0  0  0  0  0  0  0  0  0  0
    1.3260    0.1550    0.0010 C   0  0  0  0  0  0  0  0  0  0  0  0
    0.9550    1.5080   -0.0000 C   0  0  0  0  0  0  0  0  0  0  0  0
   -0.3670    1.8490   -0.0010 C   0  0  0  0  0  0  0  0  0  0  0  0
   -2.6980    1.0940   -0.0010 C   0  0  0  0  0  0  0  0  0  0  0  0
   -3.5920    0.0680   -0.0000 C   0  0  0  0  0  0  0  0  0  0  0  0
   -3.1620   -1.2580    0.0010 C   0  0  0  0  0  0  0  0  0  0  0  0
   -1.8370   -1.5670    0.0010 C   0  0  0  0  0  0  0  0  0  0  0  0
   -1.3210    0.8160   -0.0010 C   0  0  0  0  0  0  0  0  0  0  0  0
   -0.8800   -0.5340    0.0000 C   0  0  0  0  0  0  0  0  0  0  0  0
    3.1380   -1.4950   -0.0030 O   0  0  0  0  0  0  0  0  0  0  0  0
    1.7130    2.2780    0.0000 H   0  0  0  0  0  0  0  0  0  0  0  0
   -0.6720    2.8850   -0.0010 H   0  0  0  0  0  0  0  0  0  0  0  0
   -3.0450    2.1170   -0.0020 H   0  0  0  0  0  0  0  0  0  0  0  0
   -4.6510    0.2840    0.0000 H   0  0  0  0  0  0  0  0  0  0  0  0
   -3.8920   -2.0540    0.0020 H   0  0  0  0  0  0  0  0  0  0  0  0
   -1.5210   -2.5990    0.0020 H   0  0  0  0  0  0  0  0  0  0  0  0
    4.0880   -1.6770   -0.0020 H   0  0  0  0  0  0  0  0  0  0  0  0
  1  4  1  0  0  0  0
  1  2  2  0  0  0  0
  1 13  1  0  0  0  0
  3 12  2  0  0  0  0
  3  4  1  0  0  0  0
  4  5  2  0  0  0  0
  5  6  1  0  0  0  0
  5 14  1  0  0  0  0
  6 15  1  0  0  0  0
  7 16  1  0  0  0  0
  7  8  2  0  0  0  0
  8 17  1  0  0  0  0
  8  9  1  0  0  0  0
  9 18  1  0  0  0  0
  9 10  2  0  0  0  0
 10 12  1  0  0  0  0
 10 19  1  0  0  0  0
  6 11  2  0  0  0  0
  7 11  1  0  0  0  0
 11 12  1  0  0  0  0
 13 20  1  0  0  0  0
M  END
> <OPENEYE_ISO_SMILES>
c1ccc2c(c1)ccc(n2)C(=O)O

> <OPENEYE_INCHI>
InChI=1S/C10H7NO2/c12-10(13)9-6-5-7-3-1-2-4-8(7)11-9/h1-6H,(H,12,13)

> <OPENEYE_INCHIKEY>
LOAUVZALPPNFOQ-UHFFFAOYSA-N

> <FORMULA>
C10H7NO2

$$$$
