W0G
  -OEChem-02242320043D

 28 29  0     1  0  0  0  0  0999 V2000
   -0.1730    0.2550   -0.4510 N   0  0  0  0  0  0  0  0  0  0  0  0
   -1.1690   -0.1630    0.3490 C   0  0  0  0  0  0  0  0  0  0  0  0
    1.1740   -0.0890   -0.2810 C   0  0  0  0  0  0  0  0  0  0  0  0
    1.6850   -1.2240   -0.8950 C   0  0  0  0  0  0  0  0  0  0  0  0
    3.0140   -1.5600   -0.7260 C   0  0  0  0  0  0  0  0  0  0  0  0
    3.8360   -0.7690    0.0550 C   0  0  0  0  0  0  0  0  0  0  0  0
    2.0040    0.7090    0.5000 C   0  0  0  0  0  0  0  0  0  0  0  0
    1.5120    1.8160    1.0970 F   0  0  0  0  0  0  0  0  0  0  0  0
    3.3320    0.3620    0.6700 C   0  0  0  0  0  0  0  0  0  0  0  0
   -0.6790    1.1130   -1.5290 C   0  0  0  0  0  0  0  0  0  0  0  0
   -2.2010    0.8530   -1.5830 C   0  0  0  0  0  0  0  0  0  0  0  0
   -1.0290   -0.8800    1.3170 O   0  0  0  0  0  0  0  0  0  0  0  0
   -2.4910    0.3920   -0.1340 C   0  0  1  0  0  0  0  0  0  0  0  0
   -3.5200   -0.6570   -0.1330 N   0  0  0  0  0  0  0  0  0  0  0  0
   -4.1640   -0.7610    1.1840 C   0  0  0  0  0  0  0  0  0  0  0  0
    1.0440   -1.8430   -1.5050 H   0  0  0  0  0  0  0  0  0  0  0  0
    3.4120   -2.4430   -1.2040 H   0  0  0  0  0  0  0  0  0  0  0  0
    4.8750   -1.0360    0.1850 H   0  0  0  0  0  0  0  0  0  0  0  0
    3.9770    0.9800    1.2760 H   0  0  0  0  0  0  0  0  0  0  0  0
   -0.4830    2.1600   -1.3010 H   0  0  0  0  0  0  0  0  0  0  0  0
   -0.2150    0.8400   -2.4770 H   0  0  0  0  0  0  0  0  0  0  0  0
   -2.7450    1.7680   -1.8150 H   0  0  0  0  0  0  0  0  0  0  0  0
   -2.4370    0.0680   -2.3020 H   0  0  0  0  0  0  0  0  0  0  0  0
   -2.8020    1.2330    0.4860 H   0  0  0  0  0  0  0  0  0  0  0  0
   -4.2030   -0.4950   -0.8580 H   0  0  0  0  0  0  0  0  0  0  0  0
   -4.9220   -1.5440    1.1570 H   0  0  0  0  0  0  0  0  0  0  0  0
   -3.4150   -1.0050    1.9370 H   0  0  0  0  0  0  0  0  0  0  0  0
   -4.6340    0.1910    1.4340 H   0  0  0  0  0  0  0  0  0  0  0  0
  7  8  1  0  0  0  0
  7  9  2  0  0  0  0
  6  9  1  0  0  0  0
  3  7  1  0  0  0  0
  5  6  2  0  0  0  0
  1 10  1  0  0  0  0
 10 11  1  0  0  0  0
  1  3  1  0  0  0  0
  3  4  2  0  0  0  0
  1  2  1  0  0  0  0
  4  5  1  0  0  0  0
 11 13  1  0  0  0  0
  2 13  1  0  0  0  0
  2 12  2  0  0  0  0
 13 14  1  0  0  0  0
 14 15  1  0  0  0  0
  4 16  1  0  0  0  0
  5 17  1  0  0  0  0
  6 18  1  0  0  0  0
  9 19  1  0  0  0  0
 10 20  1  0  0  0  0
 10 21  1  0  0  0  0
 11 22  1  0  0  0  0
 11 23  1  0  0  0  0
 13 24  1  0  0  0  0
 14 25  1  0  0  0  0
 15 26  1  0  0  0  0
 15 27  1  0  0  0  0
 15 28  1  0  0  0  0
M  END
> <OPENEYE_ISO_SMILES>
CN[C@@H]1CCN(C1=O)c2ccccc2F

> <OPENEYE_INCHI>
InChI=1S/C11H13FN2O/c1-13-9-6-7-14(11(9)15)10-5-3-2-4-8(10)12/h2-5,9,13H,6-7H2,1H3/t9-/m1/s1

> <OPENEYE_INCHIKEY>
LXSCPIWTZCIAIQ-SECBINFHSA-N

> <FORMULA>
C11H13FN2O

$$$$
