WQV
  -OEChem-02242320043D

 19 19  0     0  0  0  0  0  0999 V2000
   -0.2100    2.1230    0.0490 N   0  0  0  0  0  0  0  0  0  0  0  0
    1.2030    0.2370   -0.0470 C   0  0  0  0  0  0  0  0  0  0  0  0
    1.0280    1.5670    0.1310 C   0  0  0  0  0  0  0  0  0  0  0  0
   -1.2910    1.3630   -0.2110 C   0  0  0  0  0  0  0  0  0  0  0  0
   -3.2050   -0.2920    1.2560 O   0  0  0  0  0  0  0  0  0  0  0  0
   -3.2880   -0.8710    0.1930 C   0  0  0  0  0  0  0  0  0  0  0  0
   -4.5380   -1.6400   -0.1500 C   0  0  0  0  0  0  0  0  0  0  0  0
   -2.2630   -0.8260   -0.6810 N   0  0  0  0  0  0  0  0  0  0  0  0
   -1.1450   -0.0270   -0.4080 C   0  0  0  0  0  0  0  0  0  0  0  0
   -2.3970    1.8760   -0.2770 O   0  0  0  0  0  0  0  0  0  0  0  0
    2.9370   -0.5110    0.0650 Br  0  0  0  0  0  0  0  0  0  0  0  0
    0.1020   -0.5840   -0.3310 C   0  0  0  0  0  0  0  0  0  0  0  0
   -0.3170    3.0780    0.1840 H   0  0  0  0  0  0  0  0  0  0  0  0
    1.8820    2.1940    0.3410 H   0  0  0  0  0  0  0  0  0  0  0  0
   -5.2490   -1.5620    0.6720 H   0  0  0  0  0  0  0  0  0  0  0  0
   -4.9820   -1.2270   -1.0560 H   0  0  0  0  0  0  0  0  0  0  0  0
   -4.2860   -2.6880   -0.3140 H   0  0  0  0  0  0  0  0  0  0  0  0
   -2.2990   -1.3470   -1.4980 H   0  0  0  0  0  0  0  0  0  0  0  0
    0.2360   -1.6460   -0.4740 H   0  0  0  0  0  0  0  0  0  0  0  0
  2 11  1  0  0  0  0
  2 12  1  0  0  0  0
  2  3  2  0  0  0  0
  5  6  2  0  0  0  0
  9 12  2  0  0  0  0
  1  3  1  0  0  0  0
  6  8  1  0  0  0  0
  6  7  1  0  0  0  0
  8  9  1  0  0  0  0
  4  9  1  0  0  0  0
  1  4  1  0  0  0  0
  4 10  2  0  0  0  0
  1 13  1  0  0  0  0
  3 14  1  0  0  0  0
  7 15  1  0  0  0  0
  7 16  1  0  0  0  0
  7 17  1  0  0  0  0
  8 18  1  0  0  0  0
 12 19  1  0  0  0  0
M  END
> <OPENEYE_ISO_SMILES>
CC(=O)Nc1cc(c[nH]c1=O)Br

> <OPENEYE_INCHI>
InChI=1S/C7H7BrN2O2/c1-4(11)10-6-2-5(8)3-9-7(6)12/h2-3H,1H3,(H,9,12)(H,10,11)

> <OPENEYE_INCHIKEY>
DZPXAAPHBCJNCQ-UHFFFAOYSA-N

> <FORMULA>
C7H7BrN2O2

$$$$
