@<TRIPOS>MOLECULE
/home/pku/3cl/gett_pdb/5SQ8/5SQ8_mol2/ligand/5SQ8_QMF.pdb
 47 50 0 0 0
SMALL
GASTEIGER

@<TRIPOS>ATOM
      1  C18      -45.8420  -29.1010    3.7550 C.ar  201  QMF201     -0.0479
      2  C17      -46.2410  -29.0050    2.4440 C.ar  201  QMF201      0.0368
      3  C15      -45.0800  -28.8870    1.4460 C.2   201  QMF201      0.2443
      4  C13      -42.6700  -29.4190    0.8710 C.3   201  QMF201      0.0389
      5  C12      -41.9370  -30.7230    0.4810 C.ar  201  QMF201     -0.0059
      6  C11      -40.9730  -30.7250   -0.5980 C.ar  201  QMF201     -0.0055
      7  C10      -40.6120  -29.6170   -1.3770 C.ar  201  QMF201     -0.0532
      8  C20      -48.1130  -29.1370    4.4700 C.ar  201  QMF201      0.0348
      9  C19      -46.7700  -29.1690    4.7700 C.ar  201  QMF201     -0.0397
     10  C02      -42.9870  -32.3790    2.2560 C.2   201  QMF201      0.1256
     11  C04      -42.0870  -31.9840    1.0960 C.ar  201  QMF201      0.0501
     12  C06      -40.3910  -31.9750   -0.8380 C.ar  201  QMF201      0.0203
     13  C07      -39.4470  -32.0920   -1.8610 C.ar  201  QMF201     -0.0474
     14  C08      -39.0890  -30.9850   -2.6390 C.ar  201  QMF201     -0.0607
     15  C09      -39.6750  -29.7420   -2.3950 C.ar  201  QMF201     -0.0611
     16  C22      -50.4360  -29.1710    5.5970 C.2   201  QMF201      0.3041
     17  C25      -52.5450  -29.1850    7.0930 C.3   201  QMF201      0.0247
     18  C26      -53.3020  -30.5010    7.2420 C.3   201  QMF201     -0.0328
     19  C27      -53.0090  -29.6570    8.4790 C.3   201  QMF201     -0.0328
     20  C28      -48.5290  -29.0140    3.1500 C.ar  201  QMF201     -0.0397
     21  C29      -47.5950  -28.9360    2.1230 C.ar  201  QMF201     -0.0479
     22  N14      -43.8240  -29.5780    1.7680 N.am  201  QMF201     -0.3072
     23  N21      -48.9840  -29.1850    5.6320 N.am  201  QMF201     -0.2695
     24  N24      -51.0860  -29.2230    6.9030 N.am  201  QMF201     -0.2963
     25  O01      -43.6650  -33.4260    2.1560 O.co2 201  QMF201     -0.8437
     26  O03      -43.0130  -31.6770    3.3100 O.co2 201  QMF201     -0.3031
     27  O16      -45.1770  -28.1520    0.5040 O.2   201  QMF201     -0.2702
     28  O23      -51.0410  -29.1480    4.5760 O.2   201  QMF201     -0.2525
     29  S05      -41.0660  -33.0810    0.2880 S.2   201  QMF201     -0.0859
     30 H181      -44.7890  -29.1210    3.9810 H     201  QMF201      0.0626
     31 H132      -42.9900  -28.9020   -0.0380 H     201  QMF201      0.0512
     32 H131      -41.9540  -28.7870    1.3830 H     201  QMF201      0.0512
     33 H101      -41.0660  -28.6570   -1.1810 H     201  QMF201      0.0624
     34 H191      -46.4410  -29.2450    5.8020 H     201  QMF201      0.0636
     35 H071      -38.9820  -33.0500   -2.0680 H     201  QMF201      0.0629
     36 H081      -38.3450  -31.0920   -3.4330 H     201  QMF201      0.0618
     37 H091      -39.3900  -28.8750   -2.9940 H     201  QMF201      0.0618
     38 H251      -53.1260  -28.3670    6.6660 H     201  QMF201      0.0499
     39 H262      -52.7050  -31.3930    7.1400 H     201  QMF201      0.0284
     40 H261      -54.3390  -30.4800    6.9010 H     201  QMF201      0.0284
     41 H272      -52.2340  -30.0500    9.1370 H     201  QMF201      0.0284
     42 H271      -53.8610  -29.1320    8.9040 H     201  QMF201      0.0284
     43 H281      -49.5880  -28.9860    2.9160 H     201  QMF201      0.0636
     44 H291      -47.9350  -28.8620    1.0930 H     201  QMF201      0.0626
     45 H141      -43.7550  -30.1600    2.5930 H     201  QMF201      0.1493
     46 H211      -48.5270  -29.2050    6.5240 H     201  QMF201      0.1564
     47 H241      -50.4900  -29.2320    7.7050 H     201  QMF201      0.1505
@<TRIPOS>UNITY_ATOM_ATTR
25 1
charge -1
@<TRIPOS>BOND
     1    36    14    1
     2    37    15    1
     3    14    15   ar
     4    14    13   ar
     5    15     7   ar
     6    35    13    1
     7    13    12   ar
     8     7    33    1
     9     7     6   ar
    10    12     6   ar
    11    12    29   ar
    12     6     5   ar
    13    31     4    1
    14    29    11   ar
    15     5     4    1
    16     5    11   ar
    17    27     3    2
    18     4    32    1
    19     4    22    1
    20    44    21    1
    21    11    10    1
    22     3    22   am
    23     3     2    1
    24    22    45    1
    25    21     2   ar
    26    21    20   ar
    27    25    10   ar
    28    10    26   ar
    29     2     1   ar
    30    43    20    1
    31    20     8   ar
    32     1    30    1
    33     1     9   ar
    34     8     9   ar
    35     8    23    1
    36    28    16    2
    37     9    34    1
    38    16    23   am
    39    16    24   am
    40    23    46    1
    41    38    17    1
    42    40    18    1
    43    24    17    1
    44    24    47    1
    45    17    18    1
    46    17    19    1
    47    39    18    1
    48    18    19    1
    49    19    42    1
    50    19    41    1
