5HN
  -OEChem-02242320013D

 15 15  0     0  0  0  0  0  0999 V2000
    2.9190   -0.6120   -0.0170 O   0  0  0  0  0  0  0  0  0  0  0  0
    1.9490    0.3220   -0.0010 C   0  0  0  0  0  0  0  0  0  0  0  0
    2.2400    1.5010    0.0110 O   0  0  0  0  0  0  0  0  0  0  0  0
    0.5290   -0.0880    0.0040 C   0  0  0  0  0  0  0  0  0  0  0  0
   -0.4890    0.8730    0.0150 C   0  0  0  0  0  0  0  0  0  0  0  0
   -1.8060    0.4350    0.0190 C   0  0  0  0  0  0  0  0  0  0  0  0
   -2.8290    1.3300    0.0290 O   0  0  0  0  0  0  0  0  0  0  0  0
   -2.0660   -0.9290    0.0120 C   0  0  0  0  0  0  0  0  0  0  0  0
   -1.0830   -1.8080    0.0010 N   0  0  0  0  0  0  0  0  0  0  0  0
    0.1820   -1.4400   -0.0090 C   0  0  0  0  0  0  0  0  0  0  0  0
    3.8330   -0.2950   -0.0190 H   0  0  0  0  0  0  0  0  0  0  0  0
   -0.2550    1.9280    0.0210 H   0  0  0  0  0  0  0  0  0  0  0  0
   -3.1290    1.5940   -0.8510 H   0  0  0  0  0  0  0  0  0  0  0  0
   -3.0890   -1.2760    0.0150 H   0  0  0  0  0  0  0  0  0  0  0  0
    0.9570   -2.1910   -0.0220 H   0  0  0  0  0  0  0  0  0  0  0  0
  2  3  2  0  0  0  0
  1  2  1  0  0  0  0
  2  4  1  0  0  0  0
  4 10  2  0  0  0  0
  4  5  1  0  0  0  0
  9 10  1  0  0  0  0
  5  6  2  0  0  0  0
  8  9  2  0  0  0  0
  6  8  1  0  0  0  0
  6  7  1  0  0  0  0
  1 11  1  0  0  0  0
  5 12  1  0  0  0  0
  7 13  1  0  0  0  0
  8 14  1  0  0  0  0
 10 15  1  0  0  0  0
M  END
> <OPENEYE_ISO_SMILES>
c1c(cncc1O)C(=O)O

> <OPENEYE_INCHI>
InChI=1S/C6H5NO3/c8-5-1-4(6(9)10)2-7-3-5/h1-3,8H,(H,9,10)

> <OPENEYE_INCHIKEY>
ATTDCVLRGFEHEO-UHFFFAOYSA-N

> <FORMULA>
C6H5NO3

$$$$
