@<TRIPOS>MOLECULE
/home/pku/3cl/gett_pdb/5RMD/5RMD_mol2/ligand/5RMD_VWY.pdb
 16 16 0 0 0
SMALL
GASTEIGER

@<TRIPOS>ATOM
      1  N1         2.0320   34.3110  -57.5090 N.am  701  VWY701     -0.2017
      2  C4         0.9640   35.9230  -58.9590 C.ar  701  VWY701      0.0551
      3  C5         1.0700   36.9810  -59.8530 C.ar  701  VWY701      0.0059
      4  C6        -0.0430   37.7110  -60.2140 C.ar  701  VWY701      0.0182
      5  C7        -1.2800   37.3940  -59.6800 C.ar  701  VWY701      0.0906
      6  C8        -2.9070   39.5570  -57.7710 C.3   701  VWY701      0.2016
      7  C10       -0.2840   35.6130  -58.4340 C.ar  701  VWY701      0.0059
      8  C1         3.9060   33.2630  -56.3160 C.3   701  VWY701      0.0253
      9  C2         2.9130   34.3850  -56.3550 C.3   701  VWY701      0.1155
     10  C3         2.1680   35.1190  -58.5600 C.2   701  VWY701      0.2648
     11  O1         3.2230   35.2090  -59.1830 O.2   701  VWY701     -0.2684
     12  N2        -2.4350   38.1380  -60.0430 N.pl3 701  VWY701     -0.1006
     13  S1        -2.8110   39.6340  -59.5170 S.O2  701  VWY701      0.0750
     14  O2        -1.7250   40.4880  -59.8690 O.2   701  VWY701     -0.1528
     15  O3        -4.1090   39.9330  -60.0260 O.2   701  VWY701     -0.1528
     16  C9        -1.3990   36.3390  -58.7920 C.ar  701  VWY701      0.0182
@<TRIPOS>BOND
     1     4     3   ar
     2     4     5   ar
     3    12     5    1
     4    12    13    1
     5    15    13    2
     6    14    13    2
     7     3     2   ar
     8     5    16   ar
     9    13     6    1
    10    11    10    2
    11     2    10    1
    12     2     7   ar
    13    16     7   ar
    14    10     1   am
    15     1     9    1
    16     9     8    1
