@<TRIPOS>MOLECULE
/home/pku/3cl/gett_pdb/7RMZ/7RMZ_mol2/ligand/7RMZ_5ZJ.pdb
 27 29 0 0 0
SMALL
GASTEIGER

@<TRIPOS>ATOM
      1  C20      110.7460   -6.8390  106.0640 C.ar  401  5ZJ401      0.2848
      2  C22      110.2680   -5.6470  106.7500 C.ar  401  5ZJ401      0.0865
      3  C24      100.6290   -3.2600  110.5530 C.3   401  5ZJ401      0.4194
      4  C13      102.1070   -3.4740  110.4260 C.ar  401  5ZJ401      0.0820
      5  C12      102.9980   -2.6540  111.1220 C.ar  401  5ZJ401      0.0060
      6  C14      102.6570   -4.4860  109.6260 C.ar  401  5ZJ401      0.0628
      7  C15      104.0230   -4.6770  109.5160 C.ar  401  5ZJ401      0.0259
      8  C17      111.8040   -7.5550  108.1950 C.ar  401  5ZJ401      0.3715
      9  C1       110.5770   -5.4630  108.0620 C.ar  401  5ZJ401      0.1442
     10  C10      104.9160   -3.8380  110.2180 C.ar  401  5ZJ401      0.0488
     11  C11      104.3730   -2.8240  111.0290 C.ar  401  5ZJ401      0.0145
     12  C2       110.1630   -4.2910  108.9130 C.2   401  5ZJ401      0.2672
     13  C5       108.1610   -5.5750  109.7070 C.3   401  5ZJ401      0.1152
     14  C6       106.7750   -5.1410  109.2570 C.3   401  5ZJ401      0.1123
     15  C8       107.1890   -2.8880  110.1960 C.3   401  5ZJ401      0.1123
     16  C9       108.6070   -3.3230  110.5450 C.3   401  5ZJ401      0.1152
     17  F25      100.0160   -3.0430  109.3610 F     401  5ZJ401     -0.1658
     18  F26      100.0140   -4.3380  111.1000 F     401  5ZJ401     -0.1658
     19  F27      100.3420   -2.2050  111.3530 F     401  5ZJ401     -0.1658
     20  N16      111.3120   -6.3950  108.7580 N.ar  401  5ZJ401     -0.1860
     21  N19      111.4890   -7.7190  106.8590 N.ar  401  5ZJ401     -0.1517
     22  N4       109.0500   -4.4140  109.6670 N.am  401  5ZJ401     -0.2713
     23  N7       106.2910   -4.0430  110.1180 N.pl3 401  5ZJ401     -0.3040
     24  O18      112.4650   -8.3720  108.8280 O.2   401  5ZJ401     -0.2425
     25  O21      110.5320   -7.1170  104.8800 O.2   401  5ZJ401     -0.2650
     26  O3       110.7970   -3.2370  108.7650 O.2   401  5ZJ401     -0.2682
     27 CL23      101.6130   -5.5690  108.7040 Cl    401  5ZJ401     -0.0823
@<TRIPOS>BOND
     1    25     1    2
     2     1     2   ar
     3     1    21   ar
     4     2     9   ar
     5    21     8   ar
     6     9    20   ar
     7     9    12    1
     8     8    20   ar
     9     8    24    2
    10    27     6    1
    11    26    12    2
    12    12    22   am
    13    14    13    1
    14    14    23    1
    15    17     3    1
    16     7     6   ar
    17     7    10   ar
    18     6     4   ar
    19    22    13    1
    20    22    16    1
    21    23    15    1
    22    23    10    1
    23    15    16    1
    24    10    11   ar
    25     4     3    1
    26     4     5   ar
    27     3    18    1
    28     3    19    1
    29    11     5   ar
