YTJ
  -OEChem-02242320043D

 53 56  0     0  0  0  0  0  0999 V2000
   -6.8640    0.1140    1.5930 C   0  0  0  0  0  0  0  0  0  0  0  0
   -5.8510   -0.5700    0.6720 C   0  0  0  0  0  0  0  0  0  0  0  0
   -3.5170   -0.5870    0.2220 C   0  0  0  0  0  0  0  0  0  0  0  0
   -7.8320    2.2460    2.1030 C   0  0  0  0  0  0  0  0  0  0  0  0
   -2.2200   -0.1580    0.4510 C   0  0  0  0  0  0  0  0  0  0  0  0
   -3.7710   -1.5410   -0.7540 C   0  0  0  0  0  0  0  0  0  0  0  0
    4.5300   -1.6820   -1.0960 C   0  0  0  0  0  0  0  0  0  0  0  0
    4.5170   -2.0630    0.2840 C   0  0  0  0  0  0  0  0  0  0  0  0
    0.5870    1.1140   -0.3230 C   0  0  0  0  0  0  0  0  0  0  0  0
    5.4940   -2.9250    0.7840 C   0  0  0  0  0  0  0  0  0  0  0  0
    5.4770   -3.2880    2.1140 C   0  0  0  0  0  0  0  0  0  0  0  0
    4.4940   -2.8030    2.9610 C   0  0  0  0  0  0  0  0  0  0  0  0
    3.5200   -1.9490    2.4850 C   0  0  0  0  0  0  0  0  0  0  0  0
    1.1690   -1.1100    0.4150 C   0  0  0  0  0  0  0  0  0  0  0  0
    0.2170   -0.2280   -0.0650 C   0  0  0  0  0  0  0  0  0  0  0  0
   -1.1730   -0.6830   -0.3050 C   0  0  0  0  0  0  0  0  0  0  0  0
   -1.4370   -1.6370   -1.2870 C   0  0  0  0  0  0  0  0  0  0  0  0
    2.1950    2.8560   -0.3640 C   0  0  0  0  0  0  0  0  0  0  0  0
   -2.7330   -2.0630   -1.5050 C   0  0  0  0  0  0  0  0  0  0  0  0
    2.5280    3.7150    0.6750 C   0  0  0  0  0  0  0  0  0  0  0  0
    2.8790    5.4560   -0.7910 C   0  0  0  0  0  0  0  0  0  0  0  0
    2.5660    4.6620   -1.8790 C   0  0  0  0  0  0  0  0  0  0  0  0
    2.2170    3.3370   -1.6710 C   0  0  0  0  0  0  0  0  0  0  0  0
    2.7920    0.6700    0.3660 C   0  0  0  0  0  0  0  0  0  0  0  0
    2.4820   -0.6450    0.6330 C   0  0  0  0  0  0  0  0  0  0  0  0
    3.5220   -1.5660    1.1470 C   0  0  0  0  0  0  0  0  0  0  0  0
    1.8490    1.5250   -0.1040 N   0  0  0  0  0  0  0  0  0  0  0  0
    2.8540    4.9680    0.4340 N   0  0  0  0  0  0  0  0  0  0  0  0
    4.5400   -1.3800   -2.1910 N   0  0  0  0  0  0  0  0  0  0  0  0
   -0.2420    1.9010   -0.7510 O   0  0  0  0  0  0  0  0  0  0  0  0
   -4.5400   -0.0780    0.9570 O   0  0  0  0  0  0  0  0  0  0  0  0
   -6.9110    1.5100    1.2950 O   0  0  0  0  0  0  0  0  0  0  0  0
   -3.0600   -3.2500   -2.7280 Cl  0  0  0  0  0  0  0  0  0  0  0  0
   -7.8500   -0.3240    1.4380 H   0  0  0  0  0  0  0  0  0  0  0  0
   -6.5630   -0.0270    2.6310 H   0  0  0  0  0  0  0  0  0  0  0  0
   -5.8790   -1.6470    0.8370 H   0  0  0  0  0  0  0  0  0  0  0  0
   -6.1020   -0.3560   -0.3670 H   0  0  0  0  0  0  0  0  0  0  0  0
   -7.5510    2.1500    3.1520 H   0  0  0  0  0  0  0  0  0  0  0  0
   -7.8080    3.2970    1.8160 H   0  0  0  0  0  0  0  0  0  0  0  0
   -8.8380    1.8520    1.9590 H   0  0  0  0  0  0  0  0  0  0  0  0
   -2.0210    0.5810    1.2120 H   0  0  0  0  0  0  0  0  0  0  0  0
   -4.7830   -1.8770   -0.9280 H   0  0  0  0  0  0  0  0  0  0  0  0
    6.2630   -3.3080    0.1290 H   0  0  0  0  0  0  0  0  0  0  0  0
    6.2340   -3.9560    2.4980 H   0  0  0  0  0  0  0  0  0  0  0  0
    4.4900   -3.0940    4.0010 H   0  0  0  0  0  0  0  0  0  0  0  0
    2.7560   -1.5750    3.1520 H   0  0  0  0  0  0  0  0  0  0  0  0
    0.9100   -2.1390    0.6190 H   0  0  0  0  0  0  0  0  0  0  0  0
   -0.6280   -2.0450   -1.8750 H   0  0  0  0  0  0  0  0  0  0  0  0
    2.5180    3.3510    1.6920 H   0  0  0  0  0  0  0  0  0  0  0  0
    3.1520    6.4890   -0.9480 H   0  0  0  0  0  0  0  0  0  0  0  0
    2.5890    5.0710   -2.8780 H   0  0  0  0  0  0  0  0  0  0  0  0
    1.9690    2.6940   -2.5020 H   0  0  0  0  0  0  0  0  0  0  0  0
    3.7980    1.0260    0.5340 H   0  0  0  0  0  0  0  0  0  0  0  0
 21 22  2  0  0  0  0
 21 28  1  0  0  0  0
 22 23  1  0  0  0  0
 20 28  2  0  0  0  0
 18 23  2  0  0  0  0
 18 20  1  0  0  0  0
  7 29  3  0  0  0  0
 18 27  1  0  0  0  0
  7  8  1  0  0  0  0
 24 27  1  0  0  0  0
  9 27  1  0  0  0  0
 24 25  2  0  0  0  0
  8 10  2  0  0  0  0
  8 26  1  0  0  0  0
 10 11  1  0  0  0  0
  9 30  2  0  0  0  0
  9 15  1  0  0  0  0
 25 26  1  0  0  0  0
 14 25  1  0  0  0  0
 13 26  2  0  0  0  0
 11 12  2  0  0  0  0
 14 15  2  0  0  0  0
 15 16  1  0  0  0  0
 12 13  1  0  0  0  0
  5 16  2  0  0  0  0
 16 17  1  0  0  0  0
  3  5  1  0  0  0  0
 17 19  2  0  0  0  0
  1  2  1  0  0  0  0
  2 31  1  0  0  0  0
  1 32  1  0  0  0  0
  4 32  1  0  0  0  0
  3 31  1  0  0  0  0
  3  6  2  0  0  0  0
  6 19  1  0  0  0  0
 19 33  1  0  0  0  0
  1 34  1  0  0  0  0
  1 35  1  0  0  0  0
  2 36  1  0  0  0  0
  2 37  1  0  0  0  0
  4 38  1  0  0  0  0
  4 39  1  0  0  0  0
  4 40  1  0  0  0  0
  5 41  1  0  0  0  0
  6 42  1  0  0  0  0
 10 43  1  0  0  0  0
 11 44  1  0  0  0  0
 12 45  1  0  0  0  0
 13 46  1  0  0  0  0
 14 47  1  0  0  0  0
 17 48  1  0  0  0  0
 20 49  1  0  0  0  0
 21 50  1  0  0  0  0
 22 51  1  0  0  0  0
 23 52  1  0  0  0  0
 24 53  1  0  0  0  0
M  END
> <OPENEYE_ISO_SMILES>
COCCOc1cc(cc(c1)Cl)c2cc(cn(c2=O)c3cccnc3)c4ccccc4C#N

> <OPENEYE_INCHI>
InChI=1S/C26H20ClN3O3/c1-32-9-10-33-23-12-19(11-21(27)14-23)25-13-20(24-7-3-2-5-18(24)15-28)17-30(26(25)31)22-6-4-8-29-16-22/h2-8,11-14,16-17H,9-10H2,1H3

> <OPENEYE_INCHIKEY>
QRCHFFNDYYKHQM-UHFFFAOYSA-N

> <FORMULA>
C26H20ClN3O3

$$$$
