UR7
  -OEChem-02242320043D

 23 23  0     0  0  0  0  0  0999 V2000
   -0.1580    0.2560    0.7270 C   0  0  0  0  0  0  0  0  0  0  0  0
    1.2650    0.1130    1.2020 C   0  0  0  0  0  0  0  0  0  0  0  0
   -0.9450   -0.8660    0.5540 C   0  0  0  0  0  0  0  0  0  0  0  0
   -2.2520   -0.7340    0.1180 C   0  0  0  0  0  0  0  0  0  0  0  0
    3.8780   -0.2130    0.4270 N   0  0  0  0  0  0  0  0  0  0  0  0
   -4.1930    0.6690   -0.6180 C   0  0  0  0  0  0  0  0  0  0  0  0
    2.1420   -1.3100   -0.8780 O   0  0  0  0  0  0  0  0  0  0  0  0
   -2.7700    0.5230   -0.1440 C   0  0  0  0  0  0  0  0  0  0  0  0
   -1.9810    1.6450    0.0300 C   0  0  0  0  0  0  0  0  0  0  0  0
   -0.6770    1.5120    0.4700 C   0  0  0  0  0  0  0  0  0  0  0  0
   -3.0230   -1.8310   -0.0520 F   0  0  0  0  0  0  0  0  0  0  0  0
    2.4210    1.1460   -0.9700 O   0  0  0  0  0  0  0  0  0  0  0  0
    2.3650   -0.0650   -0.2300 S   0  0  0  0  0  0  0  0  0  0  0  0
    1.5500    0.9980    1.7700 H   0  0  0  0  0  0  0  0  0  0  0  0
    1.3490   -0.7690    1.8360 H   0  0  0  0  0  0  0  0  0  0  0  0
   -0.5400   -1.8460    0.7580 H   0  0  0  0  0  0  0  0  0  0  0  0
    4.4160    0.5790    0.5880 H   0  0  0  0  0  0  0  0  0  0  0  0
    4.2270   -1.0900    0.6500 H   0  0  0  0  0  0  0  0  0  0  0  0
   -4.2190    0.6320   -1.7070 H   0  0  0  0  0  0  0  0  0  0  0  0
   -4.7960   -0.1430   -0.2120 H   0  0  0  0  0  0  0  0  0  0  0  0
   -4.5930    1.6240   -0.2780 H   0  0  0  0  0  0  0  0  0  0  0  0
   -2.3840    2.6250   -0.1750 H   0  0  0  0  0  0  0  0  0  0  0  0
   -0.0620    2.3890    0.6060 H   0  0  0  0  0  0  0  0  0  0  0  0
  6  8  1  0  0  0  0
  8  9  1  0  0  0  0
  9 10  2  0  0  0  0
  1 10  1  0  0  0  0
  1  2  1  0  0  0  0
  2 13  1  0  0  0  0
  7 13  2  0  0  0  0
 12 13  2  0  0  0  0
  5 13  1  0  0  0  0
  1  3  2  0  0  0  0
  3  4  1  0  0  0  0
  4  8  2  0  0  0  0
  4 11  1  0  0  0  0
  2 14  1  0  0  0  0
  2 15  1  0  0  0  0
  3 16  1  0  0  0  0
  5 17  1  0  0  0  0
  5 18  1  0  0  0  0
  6 19  1  0  0  0  0
  6 20  1  0  0  0  0
  6 21  1  0  0  0  0
  9 22  1  0  0  0  0
 10 23  1  0  0  0  0
M  END
> <OPENEYE_ISO_SMILES>
Cc1ccc(cc1F)CS(=O)(=O)N

> <OPENEYE_INCHI>
InChI=1S/C8H10FNO2S/c1-6-2-3-7(4-8(6)9)5-13(10,11)12/h2-4H,5H2,1H3,(H2,10,11,12)

> <OPENEYE_INCHIKEY>
BRGBJOARAPZJCN-UHFFFAOYSA-N

> <FORMULA>
C8H10FNO2S

$$$$
