FBB
  -OEChem-02242320023D

 16 17  0     0  0  0  0  0  0999 V2000
   -3.6890    0.6320    0.0000 F   0  0  0  0  0  0  0  0  0  0  0  0
   -2.4300    0.1430    0.0010 C   0  0  0  0  0  0  0  0  0  0  0  0
   -2.2170   -1.2300   -0.0030 C   0  0  0  0  0  0  0  0  0  0  0  0
   -0.9430   -1.7380   -0.0020 C   0  0  0  0  0  0  0  0  0  0  0  0
   -1.3540    1.0060    0.0010 C   0  0  0  0  0  0  0  0  0  0  0  0
   -0.0540    0.5050    0.0010 C   0  0  0  0  0  0  0  0  0  0  0  0
    1.5050    1.3260   -0.0010 S   0  0  0  0  0  0  0  0  0  0  0  0
    2.3360   -0.2230   -0.0000 C   0  0  0  0  0  0  0  0  0  0  0  0
    3.7070   -0.3820   -0.0010 N   0  0  0  0  0  0  0  0  0  0  0  0
    1.4840   -1.1900    0.0020 N   0  0  0  0  0  0  0  0  0  0  0  0
    0.1720   -0.8740    0.0040 C   0  0  0  0  0  0  0  0  0  0  0  0
   -3.0620   -1.9020   -0.0060 H   0  0  0  0  0  0  0  0  0  0  0  0
   -0.7920   -2.8080   -0.0040 H   0  0  0  0  0  0  0  0  0  0  0  0
   -1.5200    2.0730   -0.0000 H   0  0  0  0  0  0  0  0  0  0  0  0
    4.2860    0.3970   -0.0020 H   0  0  0  0  0  0  0  0  0  0  0  0
    4.0930   -1.2720    0.0000 H   0  0  0  0  0  0  0  0  0  0  0  0
  1  2  1  0  0  0  0
  2  5  2  0  0  0  0
  2  3  1  0  0  0  0
  5  6  1  0  0  0  0
  3  4  2  0  0  0  0
  6  7  1  0  0  0  0
  6 11  2  0  0  0  0
  7  8  1  0  0  0  0
  4 11  1  0  0  0  0
 10 11  1  0  0  0  0
  8 10  2  0  0  0  0
  8  9  1  0  0  0  0
  3 12  1  0  0  0  0
  4 13  1  0  0  0  0
  5 14  1  0  0  0  0
  9 15  1  0  0  0  0
  9 16  1  0  0  0  0
M  END
> <OPENEYE_ISO_SMILES>
c1cc2c(cc1F)sc(n2)N

> <OPENEYE_INCHI>
InChI=1S/C7H5FN2S/c8-4-1-2-5-6(3-4)11-7(9)10-5/h1-3H,(H2,9,10)

> <OPENEYE_INCHIKEY>
CJLUXPZQUXVJNF-UHFFFAOYSA-N

> <FORMULA>
C7H5FN2S

$$$$
