@<TRIPOS>MOLECULE
/home/pku/3cl/gett_pdb/5RTW/5RTW_mol2/ligand/5RTW_OHP.pdb
 18 18 0 0 0
SMALL
GASTEIGER

@<TRIPOS>ATOM
      1  C8       -43.4070  -31.9090    2.4160 C.2   201  OHP201      0.0462
      2  C7       -43.3910  -31.2560    1.0580 C.3   201  OHP201      0.0155
      3  C3       -44.7580  -30.7960    0.6060 C.ar  201  OHP201     -0.0005
      4  C4       -45.7330  -31.6960    0.3480 C.ar  201  OHP201      0.1204
      5  C5       -46.9770  -31.2750   -0.0830 C.ar  201  OHP201     -0.0199
      6  C6       -47.2290  -29.9420   -0.2630 C.ar  201  OHP201     -0.0583
      7  C1       -46.2320  -29.0270    0.0220 C.ar  201  OHP201     -0.0613
      8  C2       -45.0000  -29.4580    0.4570 C.ar  201  OHP201     -0.0548
      9  O2       -45.4540  -33.0600    0.4960 O.3   201  OHP201     -0.5065
     10  O9       -43.9390  -32.9990    2.4890 O.co2 201  OHP201     -0.5495
     11  O10      -42.8960  -31.4220    3.3930 O.co2 201  OHP201     -0.5495
     12  H71      -42.7980  -30.4890    1.0880 H     201  OHP201      0.0374
     13  H72      -43.0460  -31.8910    0.4110 H     201  OHP201      0.0374
     14  H5       -47.6390  -31.9010   -0.2700 H     201  OHP201      0.0654
     15  H6       -48.0700  -29.6540   -0.5360 H     201  OHP201      0.0619
     16  H1       -46.3950  -28.1170   -0.0800 H     201  OHP201      0.0618
     17  H2       -44.3260  -28.8410    0.6310 H     201  OHP201      0.0622
     18  HO2      -45.9440  -33.3840    1.1100 H     201  OHP201      0.2921
@<TRIPOS>UNITY_ATOM_ATTR
11 1
charge -1
@<TRIPOS>BOND
     1    15     6    1
     2    14     5    1
     3     6     5   ar
     4     6     7   ar
     5     5     4   ar
     6    16     7    1
     7     7     8   ar
     8     4     9    1
     9     4     3   ar
    10    13     2    1
    11     8     3   ar
    12     8    17    1
    13     9    18    1
    14     3     2    1
    15     2    12    1
    16     2     1    1
    17     1    10   ar
    18     1    11   ar
