3BZ
  -OEChem-02242320003D

 15 15  0     0  0  0  0  0  0999 V2000
   -2.8650   -0.9170   -0.0010 Cl  0  0  0  0  0  0  0  0  0  0  0  0
   -1.4200    0.0450   -0.0010 C   0  0  0  0  0  0  0  0  0  0  0  0
   -1.5100    1.4270   -0.0000 C   0  0  0  0  0  0  0  0  0  0  0  0
   -0.3630    2.2010    0.0000 C   0  0  0  0  0  0  0  0  0  0  0  0
    0.8780    1.6010    0.0000 C   0  0  0  0  0  0  0  0  0  0  0  0
   -0.1830   -0.5680    0.0050 C   0  0  0  0  0  0  0  0  0  0  0  0
    0.9770    0.2080   -0.0000 C   0  0  0  0  0  0  0  0  0  0  0  0
    2.3040   -0.4420   -0.0010 C   0  0  0  0  0  0  0  0  0  0  0  0
    3.3120    0.2360   -0.0010 O   0  0  0  0  0  0  0  0  0  0  0  0
    2.3960   -1.7860   -0.0010 O   0  0  0  0  0  0  0  0  0  0  0  0
   -2.4800    1.9030   -0.0010 H   0  0  0  0  0  0  0  0  0  0  0  0
   -0.4410    3.2780   -0.0000 H   0  0  0  0  0  0  0  0  0  0  0  0
    1.7720    2.2070    0.0000 H   0  0  0  0  0  0  0  0  0  0  0  0
   -0.1140   -1.6460    0.0090 H   0  0  0  0  0  0  0  0  0  0  0  0
    3.2860   -2.1650   -0.0010 H   0  0  0  0  0  0  0  0  0  0  0  0
  1  2  1  0  0  0  0
  2  3  2  0  0  0  0
  2  6  1  0  0  0  0
  3  4  1  0  0  0  0
  4  5  2  0  0  0  0
  5  7  1  0  0  0  0
  6  7  2  0  0  0  0
  7  8  1  0  0  0  0
  8  9  2  0  0  0  0
  8 10  1  0  0  0  0
  3 11  1  0  0  0  0
  4 12  1  0  0  0  0
  5 13  1  0  0  0  0
  6 14  1  0  0  0  0
 10 15  1  0  0  0  0
M  END
> <OPENEYE_ISO_SMILES>
c1cc(cc(c1)Cl)C(=O)O

> <OPENEYE_INCHI>
InChI=1S/C7H5ClO2/c8-6-3-1-2-5(4-6)7(9)10/h1-4H,(H,9,10)

> <OPENEYE_INCHIKEY>
LULAYUGMBFYYEX-UHFFFAOYSA-N

> <FORMULA>
C7H5ClO2

$$$$
