@<TRIPOS>MOLECULE
/home/pku/3cl/gett_pdb/7TJ0/7TJ0_mol2/ligand/7TJ0_S4L.pdb
 32 34 0 0 0
SMALL
GASTEIGER

@<TRIPOS>ATOM
      1  C4         8.5120    2.1500   19.7650 C.3   401  S4L401      0.1601
      2  C5         8.0230    1.3450   18.5650 C.3   401  S4L401      0.0392
      3  C6         8.3860   -0.1480   18.6990 C.3   401  S4L401      0.0864
      4  C7         9.8950   -0.4290   18.6310 C.3   401  S4L401      0.0535
      5  C8        10.1220   -1.5060   17.5580 C.2   401  S4L401      0.0627
      6  C10        7.8530   -0.9760   17.5320 C.2   401  S4L401      0.2453
      7  C12        8.2020    3.6590   19.5660 C.2   401  S4L401      0.2287
      8  C16        7.5580    1.5050   25.7380 C.3   401  S4L401      0.0022
      9  C18        7.0600    2.4730   28.0400 C.3   401  S4L401      0.0000
     10  C19        5.5740    2.1520   27.8520 C.3   401  S4L401      0.0000
     11  C20        5.3540    0.9750   26.9160 C.3   401  S4L401      0.0000
     12  N22        8.4250   -0.6310   23.7210 N.am  401  S4L401     -0.1611
     13  C23        8.2790   -1.7280   23.0480 C.2   401  S4L401      0.4218
     14  C25        9.0510   -4.0020   22.6540 C.3   401  S4L401      0.2368
     15  C26       10.1820   -3.9250   21.5760 C.ar  401  S4L401      0.0213
     16  C27       10.3340   -4.8210   20.5170 C.ar  401  S4L401     -0.0007
     17  C28       11.3600   -4.7130   19.5820 C.ar  401  S4L401     -0.0002
     18  C31       11.1220   -2.8970   21.6430 C.ar  401  S4L401     -0.0007
     19  C14        7.9500    0.6950   23.3410 C.3   401  S4L401      0.1761
     20  C15        8.2540    1.7560   24.3790 C.3   401  S4L401      0.0312
     21  C17        7.7570    2.6830   26.6990 C.3   401  S4L401      0.0001
     22  C2         8.6210    1.1650   21.9740 C.2   401  S4L401      0.2617
     23  C21        6.0370    1.2300   25.5730 C.3   401  S4L401      0.0001
     24  C29       12.2820   -3.6680   19.6860 C.ar  401  S4L401     -0.0000
     25  C30       12.1540   -2.7530   20.7360 C.ar  401  S4L401     -0.0002
     26  N3         7.9190    1.6990   21.0000 N.am  401  S4L401     -0.1977
     27  N9         8.8130   -1.6960   16.9480 N.am  401  S4L401     -0.1826
     28  O1         9.8160    1.0360   21.8540 O.2   401  S4L401     -0.2715
     29  O11        6.7030   -0.9690   17.2140 O.2   401  S4L401     -0.2730
     30  O13        8.7060    4.3010   18.6710 O.2   401  S4L401     -0.2864
     31  O24        8.8430   -2.8310   23.5120 O.3   401  S4L401     -0.4285
     32  O32        7.6400   -1.7370   21.9970 O.2   401  S4L401     -0.2245
@<TRIPOS>BOND
     1    27     6    1
     2    27     5    2
     3    29     6    2
     4     6     3    1
     5     5     4    1
     6     2     3    1
     7     2     1    1
     8     4     3    1
     9    30     7    2
    10     7     1    1
    11    17    24   ar
    12    17    16   ar
    13    24    25   ar
    14     1    26    1
    15    16    15   ar
    16    25    18   ar
    17    26    22   am
    18    15    18   ar
    19    15    14    1
    20    28    22    2
    21    22    19    1
    22    32    13    2
    23    14    31    1
    24    13    31    1
    25    13    12   am
    26    19    12    1
    27    19    20    1
    28    20     8    1
    29    23     8    1
    30    23    11    1
    31     8    21    1
    32    21     9    1
    33    11    10    1
    34    10     9    1
