07L
  -OEChem-02242320003D

 18 19  0     0  0  0  0  0  0999 V2000
   -3.3930    1.1250    0.0050 O   0  0  0  0  0  0  0  0  0  0  0  0
   -2.3660    0.4700    0.0040 C   0  0  0  0  0  0  0  0  0  0  0  0
   -2.4500   -0.9380    0.0110 C   0  0  0  0  0  0  0  0  0  0  0  0
   -1.3140   -1.6820    0.0090 C   0  0  0  0  0  0  0  0  0  0  0  0
   -0.0280   -0.9820   -0.0000 C   0  0  0  0  0  0  0  0  0  0  0  0
   -1.1840    1.1060   -0.0100 O   0  0  0  0  0  0  0  0  0  0  0  0
   -0.0180    0.4260   -0.0070 C   0  0  0  0  0  0  0  0  0  0  0  0
    1.1950    1.0980   -0.0160 C   0  0  0  0  0  0  0  0  0  0  0  0
    2.3800    0.3810   -0.0180 C   0  0  0  0  0  0  0  0  0  0  0  0
    3.5660    1.0400   -0.0260 O   0  0  0  0  0  0  0  0  0  0  0  0
    2.3640   -1.0130   -0.0110 C   0  0  0  0  0  0  0  0  0  0  0  0
    1.1790   -1.6910   -0.0020 C   0  0  0  0  0  0  0  0  0  0  0  0
   -3.4150   -1.4230    0.0180 H   0  0  0  0  0  0  0  0  0  0  0  0
   -1.3570   -2.7610    0.0150 H   0  0  0  0  0  0  0  0  0  0  0  0
    1.2150    2.1780   -0.0220 H   0  0  0  0  0  0  0  0  0  0  0  0
    3.9140    1.2350    0.8550 H   0  0  0  0  0  0  0  0  0  0  0  0
    3.2950   -1.5600   -0.0130 H   0  0  0  0  0  0  0  0  0  0  0  0
    1.1730   -2.7700    0.0030 H   0  0  0  0  0  0  0  0  0  0  0  0
  1  2  2  0  0  0  0
  2  3  1  0  0  0  0
  3  4  2  0  0  0  0
  2  6  1  0  0  0  0
  4  5  1  0  0  0  0
  6  7  1  0  0  0  0
  5  7  2  0  0  0  0
  5 12  1  0  0  0  0
  7  8  1  0  0  0  0
 11 12  2  0  0  0  0
  8  9  2  0  0  0  0
  9 11  1  0  0  0  0
  9 10  1  0  0  0  0
  3 13  1  0  0  0  0
  4 14  1  0  0  0  0
  8 15  1  0  0  0  0
 10 16  1  0  0  0  0
 11 17  1  0  0  0  0
 12 18  1  0  0  0  0
M  END
> <OPENEYE_ISO_SMILES>
c1cc(cc2c1ccc(=O)o2)O

> <OPENEYE_INCHI>
InChI=1S/C9H6O3/c10-7-3-1-6-2-4-9(11)12-8(6)5-7/h1-5,10H

> <OPENEYE_INCHIKEY>
ORHBXUUXSCNDEV-UHFFFAOYSA-N

> <FORMULA>
C9H6O3

$$$$
