@<TRIPOS>MOLECULE
/home/pku/3cl/gett_pdb/6VH0/6VH0_mol2/ligand/6VH0_QZD.pdb
 30 31 0 0 0
SMALL
GASTEIGER

@<TRIPOS>ATOM
      1  C12      -16.6090   -7.9370   -9.6560 C.3   401  QZD401      0.0335
      2  C14      -18.3590   -9.7030   -9.3200 C.2   401  QZD401      0.2410
      3  N15      -19.0200  -10.4850  -10.2470 N.am  401  QZD401     -0.2054
      4  C16      -18.1480  -10.8300  -11.3520 C.3   401  QZD401      0.1156
      5  C02      -13.6580  -12.1380   -8.4840 C.2   401  QZD401      0.4214
      6  C04      -12.4110  -10.0140   -8.5480 C.3   401  QZD401      0.1761
      7  C05      -10.9470   -9.4000   -8.6220 C.3   401  QZD401      0.0312
      8  C06       -9.9700   -9.9040   -7.5020 C.3   401  QZD401      0.0022
      9  C07       -8.5210   -9.4070   -7.6640 C.3   401  QZD401      0.0001
     10  C08      -10.4810   -9.5220   -6.1190 C.3   401  QZD401      0.0001
     11  C09      -13.3660   -9.2930   -9.5660 C.2   401  QZD401      0.2614
     12  C11      -15.1650   -7.6400  -10.1030 C.3   401  QZD401      0.1287
     13  C13      -16.9440   -9.4380   -9.7370 C.3   401  QZD401      0.0818
     14  C17      -16.9280   -9.9330  -11.1530 C.3   401  QZD401      0.0326
     15  C19      -14.8560   -6.1150  -10.1280 C.3   401  QZD401      0.2036
     16  C23      -14.0120  -14.5240   -9.1630 C.3   401  QZD401      0.1918
     17  C24      -13.3440  -15.9180   -8.9300 C.3   401  QZD401      0.0453
     18  C25      -13.2010  -16.3130   -7.4590 C.3   401  QZD401      0.0039
     19  C26      -15.5200  -14.7520   -8.9970 C.3   401  QZD401      0.1873
     20  C28      -15.6890  -15.3470  -11.2710 C.3   401  QZD401      0.2942
     21  C30      -13.8980  -14.0030  -10.5920 C.3   401  QZD401      0.1873
     22  N03      -12.5230  -11.4220   -8.8570 N.am  401  QZD401     -0.1611
     23  N10      -14.2430   -8.3400   -9.1870 N.am  401  QZD401     -0.2030
     24  O01      -14.7130  -11.5590   -8.1910 O.2   401  QZD401     -0.2246
     25  O18      -18.9180   -9.3190   -8.2970 O.2   401  QZD401     -0.2734
     26  O20      -15.8680   -5.5550  -10.9430 O.3   401  QZD401     -0.2185
     27  O21      -13.3490   -9.6080  -10.7640 O.2   401  QZD401     -0.2715
     28  O22      -13.5470  -13.4860   -8.2830 O.3   401  QZD401     -0.4357
     29  O27      -15.8860  -15.7600   -9.9420 O.3   401  QZD401     -0.3229
     30  O29      -14.3460  -14.9920  -11.4830 O.3   401  QZD401     -0.3229
@<TRIPOS>BOND
     1    30    20    1
     2    30    21    1
     3     4    14    1
     4     4     3    1
     5    20    29    1
     6    14    13    1
     7    26    15    1
     8    27    11    2
     9    21    16    1
    10     3     2   am
    11    15    12    1
    12    12     1    1
    13    12    23    1
    14    29    19    1
    15    13     1    1
    16    13     2    1
    17    11    23   am
    18    11     6    1
    19     2    25    2
    20    16    19    1
    21    16    17    1
    22    16    28    1
    23    17    18    1
    24    22     6    1
    25    22     5   am
    26     7     6    1
    27     7     8    1
    28     5    28    1
    29     5    24    2
    30     9     8    1
    31     8    10    1
