UGV
  -OEChem-02242320043D

 25 26  0     0  0  0  0  0  0999 V2000
   -5.5040    0.0180   -0.4600 N   0  0  0  0  0  0  0  0  0  0  0  0
    0.2150    1.7350    0.3580 C   0  0  0  0  0  0  0  0  0  0  0  0
   -0.9330    0.7750    0.1790 C   0  0  0  0  0  0  0  0  0  0  0  0
   -3.2670    0.3120    0.2040 C   0  0  0  0  0  0  0  0  0  0  0  0
   -3.1280   -1.0650    0.3620 C   0  0  0  0  0  0  0  0  0  0  0  0
   -4.2210   -1.8720    0.0940 C   0  0  0  0  0  0  0  0  0  0  0  0
   -4.4890    0.8220   -0.2150 C   0  0  0  0  0  0  0  0  0  0  0  0
   -0.7260   -0.3520   -0.2200 O   0  0  0  0  0  0  0  0  0  0  0  0
    1.5030    1.0530   -0.0240 C   0  0  0  0  0  0  0  0  0  0  0  0
    2.0360    1.0460   -1.2470 C   0  0  0  0  0  0  0  0  0  0  0  0
    3.2290    0.3530   -1.3600 C   0  0  0  0  0  0  0  0  0  0  0  0
    2.5380    0.1520    1.0760 S   0  0  0  0  0  0  0  0  0  0  0  0
    3.6650   -0.2030   -0.2270 C   0  0  0  0  0  0  0  0  0  0  0  0
    5.1260   -1.1270   -0.0630 Cl  0  0  0  0  0  0  0  0  0  0  0  0
   -2.1910    1.1680    0.4620 N   0  0  0  0  0  0  0  0  0  0  0  0
   -5.4050   -1.2890   -0.3190 C   0  0  0  0  0  0  0  0  0  0  0  0
    0.0620    2.6060   -0.2780 H   0  0  0  0  0  0  0  0  0  0  0  0
    0.2660    2.0500    1.4000 H   0  0  0  0  0  0  0  0  0  0  0  0
   -2.1910   -1.4930    0.6860 H   0  0  0  0  0  0  0  0  0  0  0  0
   -4.1500   -2.9440    0.2060 H   0  0  0  0  0  0  0  0  0  0  0  0
   -4.6080    1.8880   -0.3410 H   0  0  0  0  0  0  0  0  0  0  0  0
    1.5710    1.5430   -2.0860 H   0  0  0  0  0  0  0  0  0  0  0  0
    3.7660    0.2690   -2.2930 H   0  0  0  0  0  0  0  0  0  0  0  0
   -2.3500    2.0450    0.8450 H   0  0  0  0  0  0  0  0  0  0  0  0
   -6.2610   -1.9140   -0.5300 H   0  0  0  0  0  0  0  0  0  0  0  0
  1 16  2  0  0  0  0
  1  7  1  0  0  0  0
  6 16  1  0  0  0  0
  4  7  2  0  0  0  0
  5  6  2  0  0  0  0
  4  5  1  0  0  0  0
  4 15  1  0  0  0  0
  3 15  1  0  0  0  0
  3  8  2  0  0  0  0
  2  3  1  0  0  0  0
  9 12  1  0  0  0  0
 12 13  1  0  0  0  0
  2  9  1  0  0  0  0
  9 10  2  0  0  0  0
 13 14  1  0  0  0  0
 11 13  2  0  0  0  0
 10 11  1  0  0  0  0
  2 17  1  0  0  0  0
  2 18  1  0  0  0  0
  5 19  1  0  0  0  0
  6 20  1  0  0  0  0
  7 21  1  0  0  0  0
 10 22  1  0  0  0  0
 11 23  1  0  0  0  0
 15 24  1  0  0  0  0
 16 25  1  0  0  0  0
M  END
> <OPENEYE_ISO_SMILES>
c1cc(cnc1)NC(=O)Cc2ccc(s2)Cl

> <OPENEYE_INCHI>
InChI=1S/C11H9ClN2OS/c12-10-4-3-9(16-10)6-11(15)14-8-2-1-5-13-7-8/h1-5,7H,6H2,(H,14,15)

> <OPENEYE_INCHIKEY>
VLAXFSPPTLAYDD-UHFFFAOYSA-N

> <FORMULA>
C11H9ClN2OS

$$$$
