LRR
  -OEChem-02242320033D

 36 37  0     0  0  0  0  0  0999 V2000
   -2.8090   -0.2670   -0.3600 N   0  0  0  0  0  0  0  0  0  0  0  0
    1.9610    1.1000   -0.2800 C   0  0  0  0  0  0  0  0  0  0  0  0
    3.3420    0.5340   -0.0700 C   0  0  0  0  0  0  0  0  0  0  0  0
    3.8880    0.4950    1.1990 C   0  0  0  0  0  0  0  0  0  0  0  0
    5.1550   -0.0240    1.3920 C   0  0  0  0  0  0  0  0  0  0  0  0
    5.8750   -0.5060    0.3150 C   0  0  0  0  0  0  0  0  0  0  0  0
    4.0600    0.0470   -1.1460 C   0  0  0  0  0  0  0  0  0  0  0  0
   -4.3740    1.4650    0.3390 C   0  0  0  0  0  0  0  0  0  0  0  0
   -1.1390   -1.6740    0.0330 O   0  0  0  0  0  0  0  0  0  0  0  0
   -1.4970   -0.5420   -0.2120 C   0  0  0  0  0  0  0  0  0  0  0  0
   -0.4770    0.5580   -0.3510 C   0  0  0  0  0  0  0  0  0  0  0  0
    0.9250   -0.0170   -0.1390 C   0  0  0  0  0  0  0  0  0  0  0  0
    5.3280   -0.4690   -0.9550 C   0  0  0  0  0  0  0  0  0  0  0  0
   -3.8230   -1.3240   -0.2290 C   0  0  0  0  0  0  0  0  0  0  0  0
   -4.9030   -0.8400    0.7460 C   0  0  0  0  0  0  0  0  0  0  0  0
   -5.3730    0.4430    0.3280 O   0  0  0  0  0  0  0  0  0  0  0  0
   -3.2680    1.1000   -0.6520 C   0  0  0  0  0  0  0  0  0  0  0  0
    1.7680    1.8710    0.4660 H   0  0  0  0  0  0  0  0  0  0  0  0
    1.8940    1.5340   -1.2770 H   0  0  0  0  0  0  0  0  0  0  0  0
    3.3250    0.8720    2.0410 H   0  0  0  0  0  0  0  0  0  0  0  0
    5.5820   -0.0530    2.3830 H   0  0  0  0  0  0  0  0  0  0  0  0
    6.8640   -0.9110    0.4650 H   0  0  0  0  0  0  0  0  0  0  0  0
    3.6320    0.0720   -2.1370 H   0  0  0  0  0  0  0  0  0  0  0  0
   -4.8190    2.4180    0.0520 H   0  0  0  0  0  0  0  0  0  0  0  0
   -3.9520    1.5460    1.3410 H   0  0  0  0  0  0  0  0  0  0  0  0
   -0.5440    0.9920   -1.3490 H   0  0  0  0  0  0  0  0  0  0  0  0
   -0.6700    1.3300    0.3940 H   0  0  0  0  0  0  0  0  0  0  0  0
    1.1180   -0.7880   -0.8840 H   0  0  0  0  0  0  0  0  0  0  0  0
    0.9920   -0.4510    0.8590 H   0  0  0  0  0  0  0  0  0  0  0  0
    5.8910   -0.8450   -1.7960 H   0  0  0  0  0  0  0  0  0  0  0  0
   -4.2720   -1.5260   -1.2020 H   0  0  0  0  0  0  0  0  0  0  0  0
   -3.3600   -2.2320    0.1560 H   0  0  0  0  0  0  0  0  0  0  0  0
   -5.7320   -1.5480    0.7520 H   0  0  0  0  0  0  0  0  0  0  0  0
   -4.4800   -0.7660    1.7480 H   0  0  0  0  0  0  0  0  0  0  0  0
   -2.4370    1.7980   -0.5480 H   0  0  0  0  0  0  0  0  0  0  0  0
   -3.6580    1.1410   -1.6690 H   0  0  0  0  0  0  0  0  0  0  0  0
  9 10  2  0  0  0  0
  2 12  1  0  0  0  0
 11 12  1  0  0  0  0
  8 17  1  0  0  0  0
  8 16  1  0  0  0  0
  1 10  1  0  0  0  0
 10 11  1  0  0  0  0
  1 17  1  0  0  0  0
  2  3  1  0  0  0  0
  1 14  1  0  0  0  0
  3  4  2  0  0  0  0
  4  5  1  0  0  0  0
 15 16  1  0  0  0  0
 14 15  1  0  0  0  0
  3  7  1  0  0  0  0
  5  6  2  0  0  0  0
  7 13  2  0  0  0  0
  6 13  1  0  0  0  0
  2 18  1  0  0  0  0
  2 19  1  0  0  0  0
  4 20  1  0  0  0  0
  5 21  1  0  0  0  0
  6 22  1  0  0  0  0
  7 23  1  0  0  0  0
  8 24  1  0  0  0  0
  8 25  1  0  0  0  0
 11 26  1  0  0  0  0
 11 27  1  0  0  0  0
 12 28  1  0  0  0  0
 12 29  1  0  0  0  0
 13 30  1  0  0  0  0
 14 31  1  0  0  0  0
 14 32  1  0  0  0  0
 15 33  1  0  0  0  0
 15 34  1  0  0  0  0
 17 35  1  0  0  0  0
 17 36  1  0  0  0  0
M  END
> <OPENEYE_ISO_SMILES>
c1ccc(cc1)CCCC(=O)N2CCOCC2

> <OPENEYE_INCHI>
InChI=1S/C14H19NO2/c16-14(15-9-11-17-12-10-15)8-4-7-13-5-2-1-3-6-13/h1-3,5-6H,4,7-12H2

> <OPENEYE_INCHIKEY>
VCWRKWJSYZSPEJ-UHFFFAOYSA-N

> <FORMULA>
C14H19NO2

$$$$
