@<TRIPOS>MOLECULE
/home/pku/3cl/gett_pdb/7T4B/7T4B_mol2/ligand/7T4B_FWI.pdb
 34 35 0 0 0
SMALL
GASTEIGER

@<TRIPOS>ATOM
      1  C01        9.1970   18.6710   28.0890 C.3   401  FWI401      0.2036
      2  C03        8.9820   20.0450   27.4680 C.3   401  FWI401      0.1287
      3  C04        7.9250   19.9310   26.3580 C.3   401  FWI401      0.0335
      4  C05        7.5060   21.2880   25.8030 C.3   401  FWI401      0.0818
      5  C06        6.5580   21.0960   24.5550 C.2   401  FWI401      0.2410
      6  C08        5.5360   22.6730   25.8980 C.3   401  FWI401      0.1156
      7  C09        6.8440   21.9420   26.6730 C.3   401  FWI401      0.0326
      8  C12       10.8320   21.7300   27.4710 C.2   401  FWI401      0.2614
      9  C13       12.1590   22.1840   26.8970 C.3   401  FWI401      0.1761
     10  C14       13.2940   21.9220   27.8780 C.3   401  FWI401      0.0312
     11  C15       14.6530   22.2800   27.2790 C.3   401  FWI401      0.0022
     12  C16       15.7070   22.3510   28.3910 C.3   401  FWI401      0.0001
     13  C17       15.0700   21.2430   26.2420 C.3   401  FWI401      0.0001
     14  C19       11.1780   24.1660   25.7070 C.2   401  FWI401      0.4215
     15  C21       10.3640   26.1900   24.7190 C.3   401  FWI401      0.2135
     16  C22       11.4270   26.9740   23.9710 C.3   401  FWI401      0.0837
     17  C23       12.1590   27.8890   24.8830 C.3   401  FWI401      0.1021
     18  C25       11.5120   30.4940   24.4940 C.2   401  FWI401      0.4046
     19  C27       12.7060   31.6930   26.2090 C.3   401  FWI401      0.1378
     20  C28       12.0030   30.8270   27.2620 C.3   401  FWI401      0.0437
     21  C29       12.0280   33.0600   26.1240 C.3   401  FWI401      0.0437
     22  C30       14.1510   31.8950   26.6590 C.3   401  FWI401      0.0437
     23  C32       10.9110   28.1390   23.2140 C.3   401  FWI401      0.1021
     24  N07        5.3370   22.0560   24.7940 N.am  401  FWI401     -0.2054
     25  N11       10.2500   20.5140   26.9490 N.am  401  FWI401     -0.2030
     26  N18       12.0760   23.6090   26.6840 N.am  401  FWI401     -0.1611
     27  N24       11.4820   29.0580   24.2490 N.am  401  FWI401     -0.2457
     28  O02        9.9990   18.8210   29.2300 O.3   401  FWI401     -0.2185
     29  O10        6.7080   20.3820   23.6130 O.2   401  FWI401     -0.2734
     30  O20       11.0600   25.5630   25.7490 O.3   401  FWI401     -0.4334
     31  O26       12.7080   31.0750   24.9500 O.3   401  FWI401     -0.4418
     32  O31       10.5400   31.1510   24.2990 O.2   401  FWI401     -0.2262
     33  O33       10.5770   23.4730   24.9360 O.2   401  FWI401     -0.2246
     34  O34       10.2710   22.3840   28.2930 O.2   401  FWI401     -0.2715
@<TRIPOS>BOND
     1    23    16    1
     2    23    27    1
     3    29     5    2
     4    16    15    1
     5    16    17    1
     6    27    18   am
     7    27    17    1
     8    32    18    2
     9    18    31    1
    10     5    24   am
    11     5     4    1
    12    15    30    1
    13    24     6    1
    14    33    14    2
    15    31    19    1
    16    14    30    1
    17    14    26   am
    18     4     3    1
    19     4     7    1
    20     6     7    1
    21    21    19    1
    22    19    22    1
    23    19    20    1
    24    13    11    1
    25     3     2    1
    26    26     9    1
    27     9     8    1
    28     9    10    1
    29    25     2    1
    30    25     8   am
    31    11    10    1
    32    11    12    1
    33     2     1    1
    34     8    34    2
    35     1    28    1
