# Name: 4WI
# Created by ModelServer 0.9.9

# model_server_result.job_id: Quf5wOW1WdHFUoEmuQavQw
# model_server_result.datetime_utc: 2023-03-07 02:53:43
# model_server_result.server_version: 0.9.9
# model_server_result.query_name: ligand
# model_server_result.source_id: pdb-bcif
# model_server_result.entry_id: 7rfs

# model_server_params.name: atom_site
# model_server_params.value: {"label_asym_id":"B","auth_seq_id":401}

# model_server_stats.io_time_ms: 16
# model_server_stats.parse_time_ms: 83
# model_server_stats.create_model_time_ms: 6
# model_server_stats.query_time_ms: 313
# model_server_stats.encode_time_ms: 1
# model_server_stats.element_count: 68

@<TRIPOS>MOLECULE
4WI
68 70 1
****
****

@<TRIPOS>ATOM
1 C8 6.572 1.373 18.105 C.2 1 4WI 0.000
2 C3 7.852 -3.217 19.713 C.2 1 4WI 0.000
3 C1 9.193 -0.664 21.659 C.2 1 4WI 0.000
4 C13 10.255 2.169 22.026 C.2 1 4WI 0.000
5 C21 12.250 4.895 22.778 C.2 1 4WI 0.000
6 C6 5.620 0.469 20.076 C.3 1 4WI 0.000
7 C7 5.047 1.849 19.806 C.3 1 4WI 0.000
8 C10 11.164 0.893 24.031 C.3 1 4WI 0.000
9 C5 6.931 0.492 19.282 C.3 1 4WI 0.000
10 C9 10.609 -0.250 21.925 C.3 1 4WI 0.000
11 C11 11.688 -0.488 24.080 C.3 1 4WI 0.000
12 C12 11.354 -1.196 22.813 C.3 1 4WI 0.000
13 C18 12.815 -1.019 23.214 C.3 1 4WI 0.000
14 C19 13.636 -0.021 22.474 C.3 1 4WI 0.000
15 C20 13.552 -2.205 23.718 C.3 1 4WI 0.000
16 C16 8.922 5.082 24.062 C.3 1 4WI 0.000
17 C17 7.919 2.927 23.533 C.3 1 4WI 0.000
18 C23 8.301 4.608 21.742 C.3 1 4WI 0.000
19 C4 7.333 -0.901 18.827 C.3 1 4WI 0.000
20 C2 7.746 -1.749 20.019 C.3 1 4WI 0.000
21 C14 10.252 3.427 22.860 C.3 1 4WI 0.000
22 C22 13.138 5.636 21.809 C.3 1 4WI 0.000
23 C15 8.851 3.997 23.015 C.3 1 4WI 0.000
24 N5 6.776 -3.940 19.630 N.2 1 4WI 0.000
25 N2 5.414 2.061 18.429 N.am 1 4WI 0.000
26 N3 10.544 1.003 22.693 N.am 1 4WI 0.000
27 N1 9.055 -1.335 20.472 N.am 1 4WI 0.000
28 N4 11.163 4.306 22.150 N.am 1 4WI 0.000
29 O1 7.211 1.469 17.073 O.2 1 4WI 0.000
30 O2 8.280 -0.420 22.434 O.2 1 4WI 0.000
31 O3 9.993 2.178 20.830 O.2 1 4WI 0.000
32 O4 12.481 4.874 23.983 O.2 1 4WI 0.000
33 F1 13.131 5.084 20.574 F 1 4WI 0.000
34 F2 14.445 5.618 22.161 F 1 4WI 0.000
35 F3 12.800 6.947 21.669 F 1 4WI 0.000
36 H5 5.808 0.323 21.143 H 1 4WI 0.000
37 H6 4.947 -0.312 19.714 H 1 4WI 0.000
38 H7 3.959 1.875 19.900 H 1 4WI 0.000
39 H8 5.510 2.621 20.427 H 1 4WI 0.000
40 H11 10.414 1.084 24.803 H 1 4WI 0.000
41 H12 12.010 1.579 24.125 H 1 4WI 0.000
42 H4 7.726 0.984 19.852 H 1 4WI 0.000
43 H10 11.151 -0.077 20.992 H 1 4WI 0.000
44 H13 11.288 -1.016 24.944 H 1 4WI 0.000
45 H14 10.889 -2.169 22.893 H 1 4WI 0.000
46 H23 14.140 -0.509 21.635 H 1 4WI 0.000
47 H24 14.401 0.391 23.137 H 1 4WI 0.000
48 H25 13.045 0.807 22.080 H 1 4WI 0.000
49 H26 13.997 -2.755 22.885 H 1 4WI 0.000
50 H27 12.873 -2.872 24.256 H 1 4WI 0.000
51 H28 14.349 -1.894 24.398 H 1 4WI 0.000
52 H17 9.710 5.800 23.825 H 1 4WI 0.000
53 H19 9.127 4.651 25.046 H 1 4WI 0.000
54 H18 7.971 5.618 24.112 H 1 4WI 0.000
55 H20 7.503 2.343 22.708 H 1 4WI 0.000
56 H21 7.090 3.388 24.075 H 1 4WI 0.000
57 H22 8.442 2.254 24.217 H 1 4WI 0.000
58 H29 8.340 3.898 20.913 H 1 4WI 0.000
59 H30 8.871 5.499 21.466 H 1 4WI 0.000
60 H31 7.259 4.902 21.891 H 1 4WI 0.000
61 H2 8.165 -0.817 18.124 H 1 4WI 0.000
62 H3 6.500 -1.378 18.305 H 1 4WI 0.000
63 H32 7.037 -1.691 20.851 H 1 4WI 0.000
64 H15 10.641 3.273 23.860 H 1 4WI 0.000
65 H36 6.965 -4.937 19.492 H 1 4WI 0.000
66 H9 5.197 2.942 17.975 H 1 4WI 0.000
67 H1 9.863 -1.522 19.888 H 1 4WI 0.000
68 H16 11.075 4.381 21.141 H 1 4WI 0.000
@<TRIPOS>BOND
1 1 29 2
2 1 25 1
3 1 9 1
4 2 24 2
5 2 20 1
6 3 27 1
7 3 10 1
8 3 30 2
9 4 31 2
10 4 26 1
11 4 21 1
12 5 22 1
13 5 28 1
14 5 32 2
15 6 9 1
16 6 7 1
17 6 36 1
18 6 37 1
19 7 25 1
20 7 38 1
21 7 39 1
22 8 26 1
23 8 11 1
24 8 40 1
25 8 41 1
26 9 19 1
27 9 42 1
28 10 26 1
29 10 12 1
30 10 43 1
31 11 12 1
32 11 13 1
33 11 44 1
34 12 13 1
35 12 45 1
36 13 14 1
37 13 15 1
38 14 46 1
39 14 47 1
40 14 48 1
41 15 49 1
42 15 50 1
43 15 51 1
44 16 23 1
45 16 52 1
46 16 53 1
47 16 54 1
48 17 23 1
49 17 55 1
50 17 56 1
51 17 57 1
52 18 23 1
53 18 58 1
54 18 59 1
55 18 60 1
56 19 20 1
57 19 61 1
58 19 62 1
59 20 27 1
60 20 63 1
61 21 28 1
62 21 23 1
63 21 64 1
64 22 33 1
65 22 35 1
66 22 34 1
67 24 65 1
68 25 66 1
69 27 67 1
70 28 68 1
@<TRIPOS>SUBSTRUCTURE
1 4WI 1
