@<TRIPOS>MOLECULE
/home/pku/3cl/gett_pdb/6Z5T/6Z5T_mol2/ligand/6Z5T_APR.pdb
 36 39 0 0 0
SMALL
GASTEIGER

@<TRIPOS>ATOM
      1  N1         7.6680    0.3040  -11.2710 N.ar  401  APR401     -0.2040
      2  C2         8.2150   -0.3610  -10.2450 C.ar  401  APR401      0.2016
      3  N3         8.1430   -1.6560   -9.9460 N.ar  401  APR401     -0.2048
      4  C4         7.3980   -2.3080  -10.8520 C.ar  401  APR401      0.1692
      5  C5         6.7720   -1.7680  -11.9550 C.ar  401  APR401      0.1518
      6  C6         6.9220   -0.3850  -12.1670 C.ar  401  APR401      0.1919
      7  N6         6.3760    0.2710  -13.1870 N.pl3 401  APR401     -0.1054
      8  N7         6.0940   -2.7600  -12.6540 N.ar  401  APR401     -0.2193
      9  C8         6.3190   -3.8600  -11.9730 C.ar  401  APR401      0.1816
     10  N9         7.1050   -3.6450  -10.8680 N.ar  401  APR401     -0.2693
     11  C1'        7.5540   -4.6280   -9.8890 C.3   401  APR401      0.2409
     12  C2'        6.8260   -5.9640   -9.9850 C.3   401  APR401      0.2337
     13  O2'        5.6290   -5.9620   -9.2370 O.3   401  APR401     -0.2155
     14  C3'        7.8800   -6.9160   -9.4140 C.3   401  APR401      0.2161
     15  O3'        7.8550   -6.9290   -7.9930 O.3   401  APR401     -0.2175
     16  O4'        8.9150   -4.9010  -10.1360 O.3   401  APR401     -0.3306
     17  C4'        9.1880   -6.3140   -9.9440 C.3   401  APR401      0.1801
     18  C5'        9.7090   -6.8960  -11.2350 C.3   401  APR401      0.1813
     19  O5'        8.6290   -7.5720  -11.9270 O.3   401  APR401     -0.3112
     20  PA         8.7110   -7.7160  -13.5220 P.3   401  APR401      0.2189
     21  O1A        8.8500   -6.3620  -14.1360 O.2   401  APR401     -0.5170
     22  O2A        7.6030   -8.5970  -13.9970 O.3   401  APR401     -0.4371
     23  O3A       10.1000   -8.5020  -13.6880 O.3   401  APR401     -0.2703
     24  PB        10.4750  -10.0610  -13.6370 P.3   401  APR401      0.2189
     25  O1B        9.7230  -10.6970  -12.5150 O.3   401  APR401     -0.4371
     26  O2B       11.9610  -10.1980  -13.6610 O.2   401  APR401     -0.5170
     27  O5D        9.8720  -10.5660  -15.0350 O.3   401  APR401     -0.3112
     28  C5D       10.6130  -10.2870  -16.2500 C.3   401  APR401      0.1813
     29  O4D        8.6130   -9.5450  -17.3680 O.3   401  APR401     -0.3237
     30  O1D        8.1830   -7.4880  -18.3290 O.3   401  APR401     -0.1869
     31  C1D        8.5250   -8.8010  -18.5810 C.3   401  APR401      0.3023
     32  O2D        9.9670   -8.6650  -20.5940 O.3   401  APR401     -0.2148
     33  C2D        9.9220   -8.8880  -19.2000 C.3   401  APR401      0.2433
     34  O3D        9.9090  -11.2760  -19.7450 O.3   401  APR401     -0.2175
     35  C3D       10.3630  -10.2970  -18.8200 C.3   401  APR401      0.2168
     36  C4D        9.7100  -10.4870  -17.4430 C.3   401  APR401      0.1807
@<TRIPOS>BOND
     1    32    33    1
     2    34    35    1
     3    33    35    1
     4    33    31    1
     5    35    36    1
     6    31    30    1
     7    31    29    1
     8    36    29    1
     9    36    28    1
    10    28    27    1
    11    27    24    1
    12    21    20    2
    13    22    20    1
    14    23    24    1
    15    23    20    1
    16    26    24    2
    17    24    25    1
    18    20    19    1
    19     7     6    1
    20     8     9   ar
    21     8     5   ar
    22     6     5   ar
    23     6     1   ar
    24     9    10   ar
    25     5     4   ar
    26    19    18    1
    27     1     2   ar
    28    18    17    1
    29    10     4   ar
    30    10    11    1
    31     4     3   ar
    32     2     3   ar
    33    16    17    1
    34    16    11    1
    35    12    11    1
    36    12    14    1
    37    12    13    1
    38    17    14    1
    39    14    15    1
