@<TRIPOS>MOLECULE
/home/pku/3cl/gett_pdb/7LTJ/7LTJ_mol2/ligand/7LTJ_YD1.pdb
 24 26 0 0 0
SMALL
GASTEIGER

@<TRIPOS>ATOM
      1  C1        60.3210   -1.6230  104.9210 C.ar  401  YD1401      0.1442
      2  C2        59.8230   -0.4490  105.7100 C.2   401  YD1401      0.2672
      3  C5        57.7830   -1.7390  106.3990 C.3   401  YD1401      0.1152
      4  C6        56.3870   -1.3640  105.9270 C.3   401  YD1401      0.1123
      5  C8        56.7320    0.9190  106.7060 C.3   401  YD1401      0.1123
      6  C9        58.1420    0.5640  107.1510 C.3   401  YD1401      0.1152
      7  C12       52.5050    1.1000  107.5970 C.ar  401  YD1401      0.0135
      8  C14       52.2840   -0.4870  105.8130 C.ar  401  YD1401      0.0694
      9  C10       54.4840   -0.0260  106.7350 C.ar  401  YD1401      0.0488
     10  C11       53.8750    0.8860  107.6210 C.ar  401  YD1401      0.0154
     11  C13       51.6970    0.4200  106.7010 C.ar  401  YD1401      0.0683
     12  C16       53.6550   -0.7120  105.8260 C.ar  401  YD1401      0.0268
     13  C19       61.5480   -3.7030  105.1750 C.ar  401  YD1401      0.3715
     14  C22       60.6530   -3.0120  102.9610 C.ar  401  YD1401      0.2848
     15  C24       60.1190   -1.8220  103.5990 C.ar  401  YD1401      0.0865
     16  N18       61.0050   -2.5430  105.6800 N.ar  401  YD1401     -0.1860
     17  N21       61.3360   -3.8720  103.8190 N.ar  401  YD1401     -0.1517
     18  N4        58.6590   -0.5580  106.3670 N.am  401  YD1401     -0.2713
     19  N7        55.8630   -0.2560  106.7520 N.pl3 401  YD1401     -0.3040
     20  O20       62.1610   -4.5020  105.8640 O.2   401  YD1401     -0.2425
     21  O23       60.5350   -3.2920  101.7720 O.2   401  YD1401     -0.2650
     22  O3        60.5280    0.5730  105.7130 O.2   401  YD1401     -0.2682
     23 CL15       51.2920   -1.3630  104.6580 Cl    401  YD1401     -0.0813
     24 CL17       49.9740    0.7170  106.7010 Cl    401  YD1401     -0.0814
@<TRIPOS>BOND
     1    21    14    2
     2    14    15   ar
     3    14    17   ar
     4    15     1   ar
     5    17    13   ar
     6    23     8    1
     7     1    16   ar
     8     1     2    1
     9    13    16   ar
    10    13    20    2
    11     2    22    2
    12     2    18   am
    13     8    12   ar
    14     8    11   ar
    15    12     9   ar
    16     4     3    1
    17     4    19    1
    18    18     3    1
    19    18     6    1
    20    11    24    1
    21    11     7   ar
    22     5    19    1
    23     5     6    1
    24     9    19    1
    25     9    10   ar
    26     7    10   ar
