P8L
  -OEChem-02242320033D

 78 80  0     1  0  0  0  0  0999 V2000
    0.9560    0.5440   -0.3060 N   0  0  0  0  0  0  0  0  0  0  0  0
   -0.3500    0.5450    0.3580 C   0  0  1  0  0  0  0  0  0  0  0  0
   -0.7070    1.9720    0.7790 C   0  0  0  0  0  0  0  0  0  0  0  0
   -1.8220    1.9310    1.8260 C   0  0  0  0  0  0  0  0  0  0  0  0
   -1.3130    1.2300    3.0860 C   0  0  0  0  0  0  0  0  0  0  0  0
   -3.6970   -0.5910   -1.1120 C   0  0  1  0  0  0  0  0  0  0  0  0
   -4.8500   -1.2280   -0.3330 C   0  0  0  0  0  0  0  0  0  0  0  0
   -4.3580   -2.5060    0.3500 C   0  0  1  0  0  0  0  0  0  0  0  0
   -5.4790   -3.1520    1.1340 C   0  0  0  0  0  0  0  0  0  0  0  0
    5.7160    0.7550   -0.1840 C   0  0  1  0  0  0  0  0  0  0  0  0
    7.0690    0.6450    0.5220 C   0  0  1  0  0  0  0  0  0  0  0  0
    8.2100   -0.0320   -0.2390 C   0  0  0  0  0  0  0  0  0  0  0  0
    7.8130   -1.4700   -0.5790 C   0  0  0  0  0  0  0  0  0  0  0  0
    8.9550   -2.1470   -1.3410 C   0  0  0  0  0  0  0  0  0  0  0  0
   10.2130   -2.1570   -0.4700 C   0  0  0  0  0  0  0  0  0  0  0  0
    2.0850    0.5400    0.4290 C   0  0  0  0  0  0  0  0  0  0  0  0
   -4.4330   -4.8740   -0.0200 C   0  0  0  0  0  0  0  0  0  0  0  0
   -3.9720   -3.5680   -0.7050 C   0  0  0  0  0  0  0  0  0  0  0  0
   -4.2230    0.5990   -1.9180 C   0  0  2  0  0  0  0  0  0  0  0  0
    4.4570    0.6310    0.6780 C   0  0  0  0  0  0  0  0  0  0  0  0
    6.5820    2.0010    0.0070 C   0  0  0  0  0  0  0  0  0  0  0  0
   10.6090   -0.7190   -0.1300 C   0  0  0  0  0  0  0  0  0  0  0  0
    9.4680   -0.0420    0.6320 C   0  0  0  0  0  0  0  0  0  0  0  0
   -2.2480    3.3590    2.1730 C   0  0  0  0  0  0  0  0  0  0  0  0
   -1.3980    0.0250   -0.5930 C   0  0  0  0  0  0  0  0  0  0  0  0
   -2.6700   -0.1300   -0.1750 N   0  0  0  0  0  0  0  0  0  0  0  0
   -5.5010   -4.4760    0.9040 N   0  0  0  0  0  0  0  0  0  0  0  0
    2.0230    0.4450    1.6390 O   0  0  0  0  0  0  0  0  0  0  0  0
   -6.2470   -2.5610    1.8640 O   0  0  0  0  0  0  0  0  0  0  0  0
   -3.1760    1.1160   -2.7410 O   0  0  0  0  0  0  0  0  0  0  0  0
   -1.0960   -0.2530   -1.7340 O   0  0  0  0  0  0  0  0  0  0  0  0
    3.2830    0.6420   -0.1770 O   0  0  0  0  0  0  0  0  0  0  0  0
   -4.7950    1.8930   -0.7830 S   0  3  0  0  0  0  0  0  0  0  0  0
   -5.6300    1.4310    0.2710 O   0  0  0  0  0  0  0  0  0  0  0  0
    1.0070    0.5410   -1.2750 H   0  0  0  0  0  0  0  0  0  0  0  0
   -0.3100   -0.0950    1.2390 H   0  0  0  0  0  0  0  0  0  0  0  0
    0.1720    2.4560    1.2040 H   0  0  0  0  0  0  0  0  0  0  0  0
   -1.0460    2.5340   -0.0910 H   0  0  0  0  0  0  0  0  0  0  0  0
   -2.6760    1.3850    1.4250 H   0  0  0  0  0  0  0  0  0  0  0  0
   -2.1270    1.1410    3.8060 H   0  0  0  0  0  0  0  0  0  0  0  0
   -0.9480    0.2360    2.8270 H   0  0  0  0  0  0  0  0  0  0  0  0
   -0.5030    1.8120    3.5240 H   0  0  0  0  0  0  0  0  0  0  0  0
   -3.2670   -1.3270   -1.7900 H   0  0  0  0  0  0  0  0  0  0  0  0
   -5.2080   -0.5280    0.4220 H   0  0  0  0  0  0  0  0  0  0  0  0
   -5.6610   -1.4710   -1.0180 H   0  0  0  0  0  0  0  0  0  0  0  0
   -3.5110   -2.2890    1.0000 H   0  0  0  0  0  0  0  0  0  0  0  0
    5.6390    0.3450   -1.1910 H   0  0  0  0  0  0  0  0  0  0  0  0
    7.0620    0.4840    1.6000 H   0  0  0  0  0  0  0  0  0  0  0  0
    8.4090    0.5180   -1.1590 H   0  0  0  0  0  0  0  0  0  0  0  0
    7.6140   -2.0190    0.3410 H   0  0  0  0  0  0  0  0  0  0  0  0
    6.9170   -1.4620   -1.1990 H   0  0  0  0  0  0  0  0  0  0  0  0
    8.6720   -3.1710   -1.5830 H   0  0  0  0  0  0  0  0  0  0  0  0
    9.1540   -1.5970   -2.2610 H   0  0  0  0  0  0  0  0  0  0  0  0
   10.0140   -2.7070    0.4500 H   0  0  0  0  0  0  0  0  0  0  0  0
   11.0260   -2.6400   -1.0130 H   0  0  0  0  0  0  0  0  0  0  0  0
   -4.8170   -5.5740   -0.7620 H   0  0  0  0  0  0  0  0  0  0  0  0
   -3.6070   -5.3250    0.5300 H   0  0  0  0  0  0  0  0  0  0  0  0
   -4.5120   -3.4060   -1.6380 H   0  0  0  0  0  0  0  0  0  0  0  0
   -2.8960   -3.5760   -0.8750 H   0  0  0  0  0  0  0  0  0  0  0  0
   -5.0520    0.2740   -2.5460 H   0  0  0  0  0  0  0  0  0  0  0  0
    4.4910   -0.3030    1.2370 H   0  0  0  0  0  0  0  0  0  0  0  0
    4.4080    1.4690    1.3720 H   0  0  0  0  0  0  0  0  0  0  0  0
    7.0760    2.4110   -0.8740 H   0  0  0  0  0  0  0  0  0  0  0  0
    6.2560    2.7330    0.7470 H   0  0  0  0  0  0  0  0  0  0  0  0
   11.5060   -0.7270    0.4900 H   0  0  0  0  0  0  0  0  0  0  0  0
   10.8090   -0.1700   -1.0500 H   0  0  0  0  0  0  0  0  0  0  0  0
    9.7500    0.9820    0.8740 H   0  0  0  0  0  0  0  0  0  0  0  0
    9.2690   -0.5920    1.5510 H   0  0  0  0  0  0  0  0  0  0  0  0
   -1.3940    3.9060    2.5730 H   0  0  0  0  0  0  0  0  0  0  0  0
   -2.6110    3.8590    1.2750 H   0  0  0  0  0  0  0  0  0  0  0  0
   -3.0430    3.3300    2.9180 H   0  0  0  0  0  0  0  0  0  0  0  0
   -2.9050    0.0640    0.7460 H   0  0  0  0  0  0  0  0  0  0  0  0
   -6.1410   -5.0890    1.2980 H   0  0  0  0  0  0  0  0  0  0  0  0
   -2.4040    1.4250   -2.2480 H   0  0  0  0  0  0  0  0  0  0  0  0
   -3.5750    2.5640   -0.1680 O   0  0  0  0  0  0  0  0  0  0  0  0
   -5.5690    2.9280   -1.5870 O   0  0  0  0  0  0  0  0  0  0  0  0
   -2.9480    2.9110   -0.8170 H   0  0  0  0  0  0  0  0  0  0  0  0
   -5.9130    3.6600   -1.0580 H   0  0  0  0  0  0  0  0  0  0  0  0
  4 24  1  0  0  0  0
 14 15  1  0  0  0  0
 13 14  1  0  0  0  0
 15 22  1  0  0  0  0
  4  5  1  0  0  0  0
  3  4  1  0  0  0  0
 12 13  1  0  0  0  0
 22 23  1  0  0  0  0
  2  3  1  0  0  0  0
 12 23  1  0  0  0  0
 11 12  1  0  0  0  0
  1  2  1  0  0  0  0
  1 16  1  0  0  0  0
  2 25  1  0  0  0  0
 10 11  1  0  0  0  0
 11 21  1  0  0  0  0
 16 32  1  0  0  0  0
 20 32  1  0  0  0  0
 16 28  2  0  0  0  0
 10 20  1  0  0  0  0
 10 21  1  0  0  0  0
 25 31  2  0  0  0  0
 25 26  1  0  0  0  0
  6 26  1  0  0  0  0
 19 30  1  0  0  0  0
 19 33  1  0  0  0  0
  6 19  1  0  0  0  0
  6  7  1  0  0  0  0
  7  8  1  0  0  0  0
  8 18  1  0  0  0  0
  8  9  1  0  0  0  0
 17 18  1  0  0  0  0
 17 27  1  0  0  0  0
  9 29  2  0  0  0  0
  9 27  1  0  0  0  0
 33 34  2  0  0  0  0
  1 35  1  0  0  0  0
  2 36  1  0  0  0  0
  3 37  1  0  0  0  0
  3 38  1  0  0  0  0
  4 39  1  0  0  0  0
  5 40  1  0  0  0  0
  5 41  1  0  0  0  0
  5 42  1  0  0  0  0
  6 43  1  0  0  0  0
  7 44  1  0  0  0  0
  7 45  1  0  0  0  0
  8 46  1  0  0  0  0
 10 47  1  0  0  0  0
 11 48  1  0  0  0  0
 12 49  1  0  0  0  0
 13 50  1  0  0  0  0
 13 51  1  0  0  0  0
 14 52  1  0  0  0  0
 14 53  1  0  0  0  0
 15 54  1  0  0  0  0
 15 55  1  0  0  0  0
 17 56  1  0  0  0  0
 17 57  1  0  0  0  0
 18 58  1  0  0  0  0
 18 59  1  0  0  0  0
 19 60  1  0  0  0  0
 20 61  1  0  0  0  0
 20 62  1  0  0  0  0
 21 63  1  0  0  0  0
 21 64  1  0  0  0  0
 22 65  1  0  0  0  0
 22 66  1  0  0  0  0
 23 67  1  0  0  0  0
 23 68  1  0  0  0  0
 24 69  1  0  0  0  0
 24 70  1  0  0  0  0
 24 71  1  0  0  0  0
 26 72  1  0  0  0  0
 27 73  1  0  0  0  0
 30 74  1  0  0  0  0
 33 75  1  0  0  0  0
 33 76  1  0  0  0  0
 75 77  1  0  0  0  0
 76 78  1  0  0  0  0
M  CHG  1  33   1
M  END
> <OPENEYE_ISO_SMILES>
CC(C)C[C@@H](C(=O)N[C@@H](C[C@@H]1CCNC1=O)[C@H](O)[S+](=O)(O)O)NC(=O)OC[C@H]2C[C@@H]2C3CCCCC3

> <OPENEYE_INCHI>
InChI=1S/C24H40N3O8S/c1-14(2)10-19(27-24(31)35-13-17-11-18(17)15-6-4-3-5-7-15)22(29)26-20(23(30)36(32,33)34)12-16-8-9-25-21(16)28/h14-20,23,30H,3-13H2,1-2H3,(H3-2,25,26,27,28,29,31,32,33,34)/q-1/p+2/t16-,17+,18+,19-,20-,23+/m0/s1

> <OPENEYE_INCHIKEY>
BNNIGFVXMNVYNU-HUWCRECTSA-P

> <FORMULA>
C24H42N3O8S+

$$$$
