N63
  -OEChem-02242320033D

 67 68  0     1  0  0  0  0  0999 V2000
    5.3600   -3.0430   -0.7580 C   0  0  0  0  0  0  0  0  0  0  0  0
    0.2970    1.7000   -2.0850 C   0  0  0  0  0  0  0  0  0  0  0  0
    1.6050    1.8080   -2.8720 C   0  0  0  0  0  0  0  0  0  0  0  0
    1.6800    0.6720   -3.8950 C   0  0  0  0  0  0  0  0  0  0  0  0
    1.6530    3.1530   -3.6000 C   0  0  0  0  0  0  0  0  0  0  0  0
   -2.0220   -0.2410   -1.1460 C   0  0  0  0  0  0  0  0  0  0  0  0
   -4.2710   -1.0380   -1.2000 C   0  0  0  0  0  0  0  0  0  0  0  0
   -5.4540   -1.2020   -0.2810 C   0  0  0  0  0  0  0  0  0  0  0  0
   -6.3780   -0.1810   -0.1550 C   0  0  0  0  0  0  0  0  0  0  0  0
   -7.4630   -0.3310    0.6880 C   0  0  0  0  0  0  0  0  0  0  0  0
   -8.4700    0.7820    0.8260 C   0  0  0  0  0  0  0  0  0  0  0  0
    4.3920   -4.1420    1.0450 C   0  0  0  0  0  0  0  0  0  0  0  0
   -7.6250   -1.5020    1.4050 C   0  0  0  0  0  0  0  0  0  0  0  0
   -6.7010   -2.5230    1.2790 C   0  0  0  0  0  0  0  0  0  0  0  0
   -5.6190   -2.3750    0.4310 C   0  0  0  0  0  0  0  0  0  0  0  0
    4.0160   -2.6520    1.2090 C   0  0  0  0  0  0  0  0  0  0  0  0
    4.3240   -2.0930   -0.1990 C   0  0  1  0  0  0  0  0  0  0  0  0
    4.8950   -0.6770   -0.0990 C   0  0  0  0  0  0  0  0  0  0  0  0
    3.7960    0.2850    0.3580 C   0  0  1  0  0  0  0  0  0  0  0  0
    4.3760    1.6940    0.4930 C   0  0  1  0  0  0  0  0  0  0  0  0
    1.4440    0.5150   -0.2340 C   0  0  0  0  0  0  0  0  0  0  0  0
    0.3180    0.4300   -1.2320 C   0  0  1  0  0  0  0  0  0  0  0  0
   -9.4830    0.6150   -0.1250 F   0  0  0  0  0  0  0  0  0  0  0  0
   -9.0250    0.7520    2.1090 F   0  0  0  0  0  0  0  0  0  0  0  0
   -7.8360    2.0120    0.6200 F   0  0  0  0  0  0  0  0  0  0  0  0
    5.3800   -4.1790   -0.0390 N   0  0  0  0  0  0  0  0  0  0  0  0
    2.7130    0.2940   -0.6280 N   0  0  0  0  0  0  0  0  0  0  0  0
   -0.9560    0.2980   -0.5220 N   0  0  0  0  0  0  0  0  0  0  0  0
    6.0660   -2.8150   -1.7170 O   0  0  0  0  0  0  0  0  0  0  0  0
    3.3260    2.6140    0.8010 O   0  0  0  0  0  0  0  0  0  0  0  0
   -3.1640   -0.4550   -0.4650 O   0  0  0  0  0  0  0  0  0  0  0  0
   -1.9530   -0.5350   -2.3230 O   0  0  0  0  0  0  0  0  0  0  0  0
    1.2070    0.7820    0.9260 O   0  0  0  0  0  0  0  0  0  0  0  0
    0.1900    2.5710   -1.4380 H   0  0  0  0  0  0  0  0  0  0  0  0
   -0.5420    1.6580   -2.7790 H   0  0  0  0  0  0  0  0  0  0  0  0
    2.4490    1.7360   -2.1860 H   0  0  0  0  0  0  0  0  0  0  0  0
    0.8620    0.7710   -4.6080 H   0  0  0  0  0  0  0  0  0  0  0  0
    2.6310    0.7220   -4.4240 H   0  0  0  0  0  0  0  0  0  0  0  0
    1.5990   -0.2860   -3.3800 H   0  0  0  0  0  0  0  0  0  0  0  0
    1.5990    3.9620   -2.8720 H   0  0  0  0  0  0  0  0  0  0  0  0
    2.5840    3.2300   -4.1610 H   0  0  0  0  0  0  0  0  0  0  0  0
    0.8080    3.2250   -4.2860 H   0  0  0  0  0  0  0  0  0  0  0  0
   -3.9760   -2.0130   -1.5890 H   0  0  0  0  0  0  0  0  0  0  0  0
   -4.5420   -0.3840   -2.0290 H   0  0  0  0  0  0  0  0  0  0  0  0
   -6.2520    0.7340   -0.7150 H   0  0  0  0  0  0  0  0  0  0  0  0
    4.8300   -4.5240    1.9670 H   0  0  0  0  0  0  0  0  0  0  0  0
    3.5120   -4.7260    0.7750 H   0  0  0  0  0  0  0  0  0  0  0  0
   -8.4700   -1.6170    2.0670 H   0  0  0  0  0  0  0  0  0  0  0  0
   -6.8280   -3.4370    1.8390 H   0  0  0  0  0  0  0  0  0  0  0  0
   -4.8980   -3.1720    0.3330 H   0  0  0  0  0  0  0  0  0  0  0  0
    2.9590   -2.5420    1.4500 H   0  0  0  0  0  0  0  0  0  0  0  0
    4.6390   -2.1740    1.9640 H   0  0  0  0  0  0  0  0  0  0  0  0
    3.4260   -2.1010   -0.8170 H   0  0  0  0  0  0  0  0  0  0  0  0
    5.7120   -0.6640    0.6220 H   0  0  0  0  0  0  0  0  0  0  0  0
    5.2670   -0.3650   -1.0750 H   0  0  0  0  0  0  0  0  0  0  0  0
    3.4060   -0.0410    1.3220 H   0  0  0  0  0  0  0  0  0  0  0  0
    4.8480    1.9840   -0.4460 H   0  0  0  0  0  0  0  0  0  0  0  0
    0.4680   -0.4370   -1.8750 H   0  0  0  0  0  0  0  0  0  0  0  0
    5.9720   -4.9270   -0.2150 H   0  0  0  0  0  0  0  0  0  0  0  0
    2.9100    0.1420   -1.5660 H   0  0  0  0  0  0  0  0  0  0  0  0
   -1.0330    0.5980    0.3970 H   0  0  0  0  0  0  0  0  0  0  0  0
    2.6290    2.6540    0.1320 H   0  0  0  0  0  0  0  0  0  0  0  0
    5.6090    1.7170    1.8230 S   0  0  0  0  0  0  0  0  0  0  0  0
    6.2020    3.0040    1.9310 O   0  0  0  0  0  0  0  0  0  0  0  0
    5.1170    1.0380    2.9700 O   0  0  0  0  0  0  0  0  0  0  0  0
    6.7340    0.8270    1.3130 O   0  0  0  0  0  0  0  0  0  0  0  0
    7.4760    0.7410    1.9260 H   0  0  0  0  0  0  0  0  0  0  0  0
 12 26  1  0  0  0  0
  1 26  1  0  0  0  0
  1 29  2  0  0  0  0
 12 16  1  0  0  0  0
  1 17  1  0  0  0  0
 16 17  1  0  0  0  0
 20 30  1  0  0  0  0
 17 18  1  0  0  0  0
 18 19  1  0  0  0  0
 11 24  1  0  0  0  0
 13 14  2  0  0  0  0
 10 13  1  0  0  0  0
 14 15  1  0  0  0  0
 19 20  1  0  0  0  0
 19 27  1  0  0  0  0
 10 11  1  0  0  0  0
 11 23  1  0  0  0  0
 11 25  1  0  0  0  0
  9 10  2  0  0  0  0
  8 15  2  0  0  0  0
 21 27  1  0  0  0  0
  8  9  1  0  0  0  0
  7  8  1  0  0  0  0
 21 33  2  0  0  0  0
  6 32  2  0  0  0  0
 21 22  1  0  0  0  0
  7 31  1  0  0  0  0
  6 31  1  0  0  0  0
  6 28  1  0  0  0  0
 22 28  1  0  0  0  0
  2 22  1  0  0  0  0
  2  3  1  0  0  0  0
  3  4  1  0  0  0  0
  3  5  1  0  0  0  0
  2 34  1  0  0  0  0
  2 35  1  0  0  0  0
  3 36  1  0  0  0  0
  4 37  1  0  0  0  0
  4 38  1  0  0  0  0
  4 39  1  0  0  0  0
  5 40  1  0  0  0  0
  5 41  1  0  0  0  0
  5 42  1  0  0  0  0
  7 43  1  0  0  0  0
  7 44  1  0  0  0  0
  9 45  1  0  0  0  0
 12 46  1  0  0  0  0
 12 47  1  0  0  0  0
 13 48  1  0  0  0  0
 14 49  1  0  0  0  0
 15 50  1  0  0  0  0
 16 51  1  0  0  0  0
 16 52  1  0  0  0  0
 17 53  1  0  0  0  0
 18 54  1  0  0  0  0
 18 55  1  0  0  0  0
 19 56  1  0  0  0  0
 20 57  1  0  0  0  0
 22 58  1  0  0  0  0
 26 59  1  0  0  0  0
 27 60  1  0  0  0  0
 28 61  1  0  0  0  0
 30 62  1  0  0  0  0
 20 63  1  0  0  0  0
 63 64  2  0  0  0  0
 63 65  2  0  0  0  0
 63 66  1  0  0  0  0
 66 67  1  0  0  0  0
M  END
> <OPENEYE_ISO_SMILES>
CC(C)C[C@@H](C(=O)N[C@@H](C[C@@H]1CCNC1=O)[C@@H](O)S(=O)(=O)O)NC(=O)OCc2cccc(c2)C(F)(F)F

> <OPENEYE_INCHI>
InChI=1S/C22H30F3N3O8S/c1-12(2)8-16(28-21(32)36-11-13-4-3-5-15(9-13)22(23,24)25)19(30)27-17(20(31)37(33,34)35)10-14-6-7-26-18(14)29/h3-5,9,12,14,16-17,20,31H,6-8,10-11H2,1-2H3,(H,26,29)(H,27,30)(H,28,32)(H,33,34,35)/t14-,16-,17-,20-/m0/s1

> <OPENEYE_INCHIKEY>
SOKKEQHRVRNCKI-VERUCKTNSA-N

> <FORMULA>
C22H30F3N3O8S

$$$$
