PYD
  -OEChem-02242320033D

 18 18  0     0  0  0  0  0  0999 V2000
    1.2330    0.0000    1.1350 N   0  0  0  0  0  0  0  0  0  0  0  0
   -0.0280    0.0000    1.5140 C   0  0  0  0  0  0  0  0  0  0  0  0
   -0.3510    0.0010    2.9860 C   0  0  0  0  0  0  0  0  0  0  0  0
   -1.0150   -0.0040    0.6420 N   0  0  0  0  0  0  0  0  0  0  0  0
   -0.7670    0.0010   -0.6640 C   0  0  0  0  0  0  0  0  0  0  0  0
   -1.8070    0.0010   -1.5780 N   0  0  0  0  0  0  0  0  0  0  0  0
    0.5590    0.0000   -1.0990 C   0  0  0  0  0  0  0  0  0  0  0  0
    1.5610   -0.0000   -0.1480 C   0  0  0  0  0  0  0  0  0  0  0  0
    0.8900   -0.0000   -2.5690 C   0  0  0  0  0  0  0  0  0  0  0  0
   -0.4290    1.0280    3.3410 H   0  0  0  0  0  0  0  0  0  0  0  0
   -1.2990   -0.5120    3.1500 H   0  0  0  0  0  0  0  0  0  0  0  0
    0.4390   -0.5130    3.5320 H   0  0  0  0  0  0  0  0  0  0  0  0
   -2.7260    0.0010   -1.2680 H   0  0  0  0  0  0  0  0  0  0  0  0
   -1.6170    0.0000   -2.5300 H   0  0  0  0  0  0  0  0  0  0  0  0
    2.5990   -0.0000   -0.4470 H   0  0  0  0  0  0  0  0  0  0  0  0
    0.9690   -1.0280   -2.9230 H   0  0  0  0  0  0  0  0  0  0  0  0
    0.1020    0.5130   -3.1190 H   0  0  0  0  0  0  0  0  0  0  0  0
    1.8380    0.5120   -2.7290 H   0  0  0  0  0  0  0  0  0  0  0  0
  1  2  2  0  0  0  0
  1  8  1  0  0  0  0
  2  3  1  0  0  0  0
  2  4  1  0  0  0  0
  3 10  1  0  0  0  0
  3 11  1  0  0  0  0
  3 12  1  0  0  0  0
  4  5  2  0  0  0  0
  5  6  1  0  0  0  0
  5  7  1  0  0  0  0
  6 13  1  0  0  0  0
  6 14  1  0  0  0  0
  7  8  2  0  0  0  0
  7  9  1  0  0  0  0
  8 15  1  0  0  0  0
  9 16  1  0  0  0  0
  9 17  1  0  0  0  0
  9 18  1  0  0  0  0
M  END
> <OPENEYE_ISO_SMILES>
Cc1cnc(nc1N)C

> <OPENEYE_INCHI>
InChI=1S/C6H9N3/c1-4-3-8-5(2)9-6(4)7/h3H,1-2H3,(H2,7,8,9)

> <OPENEYE_INCHIKEY>
UXKNAXNFIYFMIB-UHFFFAOYSA-N

> <FORMULA>
C6H9N3

$$$$
