@<TRIPOS>MOLECULE
/home/pku/3cl/gett_pdb/5SP0/5SP0_mol2/ligand/5SP0_WY7.pdb
 31 34 0 0 0
SMALL
GASTEIGER

@<TRIPOS>ATOM
      1  C10      -44.8310  -30.3190    1.3570 C.ar  201  WY7201      0.1016
      2  C13      -44.9560  -32.2840    0.3990 C.ar  201  WY7201      0.2023
      3  C15      -44.8850  -34.5650   -0.8110 C.ar  201  WY7201     -0.0127
      4  C17      -47.0570  -35.0510   -0.6210 C.ar  201  WY7201      0.0927
      5  C20      -47.4080  -28.9060    3.0870 C.3   201  WY7201      0.2727
      6  C02      -47.6850  -28.9760    5.3730 C.2   201  WY7201      0.3349
      7  C03      -46.3150  -29.1370    5.5240 C.ar  201  WY7201      0.1951
      8  C05      -44.2740  -29.3940    6.2070 C.ar  201  WY7201      0.1192
      9  C07      -45.5330  -29.1730    4.4530 C.ar  201  WY7201      0.1602
     10  C09      -45.2230  -29.0360    2.0460 C.3   201  WY7201      0.0631
     11  C14      -45.5410  -33.5640   -0.1260 C.ar  201  WY7201      0.1724
     12  C16      -45.8500  -35.5130   -1.1100 C.ar  201  WY7201     -0.0232
     13  C19      -45.6950  -31.3370    1.0260 C.ar  201  WY7201      0.0130
     14  N01      -48.5390  -28.9340    6.5320 N.pl3 201  WY7201     -0.2451
     15  N04      -45.5290  -29.2800    6.6180 N.ar  201  WY7201     -0.2247
     16  N06      -44.2500  -29.3280    4.8720 N.ar  201  WY7201     -0.2182
     17  N08      -46.0780  -29.0800    3.2120 N.pl3 201  WY7201     -0.2607
     18  N11      -43.6030  -30.6430    0.9070 N.ar  201  WY7201     -0.0809
     19  N21      -48.2120  -28.8660    4.1710 N.2   201  WY7201     -0.0513
     20  O12      -43.7060  -31.8720    0.3250 O.2   201  WY7201     -0.3512
     21  O18      -46.8330  -33.8750   -0.0440 O.2   201  WY7201     -0.4597
     22 H151      -43.9780  -34.5990   -1.0080 H     201  WY7201      0.0656
     23 H171      -47.8720  -35.4790   -0.6820 H     201  WY7201      0.1029
     24 H201      -47.7620  -28.8200    2.2490 H     201  WY7201      0.1115
     25 H051      -43.5470  -29.4860    6.7710 H     201  WY7201      0.1048
     26 H091      -45.6820  -28.4840    1.3920 H     201  WY7201      0.0531
     27 H092      -44.4070  -28.5800    2.2950 H     201  WY7201      0.0531
     28 H161      -45.7150  -36.3050   -1.5590 H     201  WY7201      0.0649
     29 H191      -46.6010  -31.3740    1.2150 H     201  WY7201      0.0676
     30 H012      -48.8530  -29.6690    6.8480 H     201  WY7201      0.2885
     31 H011      -48.6990  -28.1890    6.9090 H     201  WY7201      0.2885
@<TRIPOS>BOND
     1    28    12    1
     2    12     3   ar
     3    12     4   ar
     4    22     3    1
     5     3    11   ar
     6    23     4    1
     7     4    21   ar
     8    11    21   ar
     9    11     2    1
    10    20     2   ar
    11    20    18   ar
    12     2    13   ar
    13    18     1   ar
    14    13    29    1
    15    13     1   ar
    16     1    10    1
    17    26    10    1
    18    10    27    1
    19    10    17    1
    20    24     5    1
    21     5    17    1
    22     5    19    1
    23    17     9    1
    24    19     6    2
    25     9    16   ar
    26     9     7   ar
    27    16     8   ar
    28     6     7    1
    29     6    14    1
    30     7    15   ar
    31     8    15   ar
    32     8    25    1
    33    14    30    1
    34    14    31    1
