JHS
  -OEChem-02242320033D

 36 37  0     0  0  0  0  0  0999 V2000
   -2.3000   -1.4600    1.2090 C   0  0  0  0  0  0  0  0  0  0  0  0
    1.8840   -0.7290    1.1270 C   0  0  0  0  0  0  0  0  0  0  0  0
    3.9320   -0.1590    0.0260 C   0  0  0  0  0  0  0  0  0  0  0  0
    1.8820   -0.2060   -1.2090 C   0  0  0  0  0  0  0  0  0  0  0  0
   -0.7270    3.9810    0.8910 C   0  0  0  0  0  0  0  0  0  0  0  0
   -1.0720    2.8310   -0.0200 C   0  0  0  0  0  0  0  0  0  0  0  0
   -1.7310    3.0260   -1.0200 O   0  0  0  0  0  0  0  0  0  0  0  0
   -0.6490    1.5860    0.2770 N   0  0  0  0  0  0  0  0  0  0  0  0
   -0.9850    0.4680   -0.6090 C   0  0  0  0  0  0  0  0  0  0  0  0
   -0.2890   -0.8010   -0.1130 C   0  0  0  0  0  0  0  0  0  0  0  0
   -0.5970   -1.9600   -1.0660 C   0  0  0  0  0  0  0  0  0  0  0  0
   -2.1030   -2.2350   -1.0520 C   0  0  0  0  0  0  0  0  0  0  0  0
   -2.5200   -2.5260    0.2830 O   0  0  0  0  0  0  0  0  0  0  0  0
   -0.8020   -1.1550    1.2860 C   0  0  0  0  0  0  0  0  0  0  0  0
    1.2000   -0.5720   -0.0640 C   0  0  0  0  0  0  0  0  0  0  0  0
    3.2500   -0.5200    1.1730 C   0  0  0  0  0  0  0  0  0  0  0  0
    3.2490   -0.0080   -1.1660 C   0  0  0  0  0  0  0  0  0  0  0  0
   -2.8360   -0.5720    0.8750 H   0  0  0  0  0  0  0  0  0  0  0  0
   -2.6620   -1.7540    2.1950 H   0  0  0  0  0  0  0  0  0  0  0  0
    1.3510   -1.0110    2.0230 H   0  0  0  0  0  0  0  0  0  0  0  0
    4.9990    0.0060    0.0620 H   0  0  0  0  0  0  0  0  0  0  0  0
    1.3480   -0.0880   -2.1410 H   0  0  0  0  0  0  0  0  0  0  0  0
    0.2180    4.4240    0.5750 H   0  0  0  0  0  0  0  0  0  0  0  0
   -1.5150    4.7330    0.8410 H   0  0  0  0  0  0  0  0  0  0  0  0
   -0.6350    3.6190    1.9140 H   0  0  0  0  0  0  0  0  0  0  0  0
   -0.1230    1.4310    1.0760 H   0  0  0  0  0  0  0  0  0  0  0  0
   -2.0640    0.3150   -0.6070 H   0  0  0  0  0  0  0  0  0  0  0  0
   -0.6520    0.6940   -1.6210 H   0  0  0  0  0  0  0  0  0  0  0  0
   -0.2850   -1.6940   -2.0760 H   0  0  0  0  0  0  0  0  0  0  0  0
   -0.0610   -2.8520   -0.7410 H   0  0  0  0  0  0  0  0  0  0  0  0
   -2.6370   -1.3560   -1.4160 H   0  0  0  0  0  0  0  0  0  0  0  0
   -2.3240   -3.0860   -1.6960 H   0  0  0  0  0  0  0  0  0  0  0  0
   -0.6360   -0.3130    1.9580 H   0  0  0  0  0  0  0  0  0  0  0  0
   -0.2700   -2.0300    1.6580 H   0  0  0  0  0  0  0  0  0  0  0  0
    3.7830   -0.6370    2.1050 H   0  0  0  0  0  0  0  0  0  0  0  0
    3.7840    0.2650   -2.0640 H   0  0  0  0  0  0  0  0  0  0  0  0
  6  7  2  0  0  0  0
  5  6  1  0  0  0  0
  6  8  1  0  0  0  0
  8  9  1  0  0  0  0
  9 10  1  0  0  0  0
 10 11  1  0  0  0  0
 10 14  1  0  0  0  0
 10 15  1  0  0  0  0
 11 12  1  0  0  0  0
  1 14  1  0  0  0  0
  1 13  1  0  0  0  0
 12 13  1  0  0  0  0
  2 15  2  0  0  0  0
  4 15  1  0  0  0  0
  2 16  1  0  0  0  0
  4 17  2  0  0  0  0
  3 16  2  0  0  0  0
  3 17  1  0  0  0  0
  1 18  1  0  0  0  0
  1 19  1  0  0  0  0
  2 20  1  0  0  0  0
  3 21  1  0  0  0  0
  4 22  1  0  0  0  0
  5 23  1  0  0  0  0
  5 24  1  0  0  0  0
  5 25  1  0  0  0  0
  8 26  1  0  0  0  0
  9 27  1  0  0  0  0
  9 28  1  0  0  0  0
 11 29  1  0  0  0  0
 11 30  1  0  0  0  0
 12 31  1  0  0  0  0
 12 32  1  0  0  0  0
 14 33  1  0  0  0  0
 14 34  1  0  0  0  0
 16 35  1  0  0  0  0
 17 36  1  0  0  0  0
M  END
> <OPENEYE_ISO_SMILES>
CC(=O)NCC1(CCOCC1)c2ccccc2

> <OPENEYE_INCHI>
InChI=1S/C14H19NO2/c1-12(16)15-11-14(7-9-17-10-8-14)13-5-3-2-4-6-13/h2-6H,7-11H2,1H3,(H,15,16)

> <OPENEYE_INCHIKEY>
NGIANCGROXYCRZ-UHFFFAOYSA-N

> <FORMULA>
C14H19NO2

$$$$
