@<TRIPOS>MOLECULE
/home/pku/3cl/gett_pdb/5R84/5R84_mol2/ligand/5R84_GWS.pdb
 16 17 0 0 0
SMALL
GASTEIGER

@<TRIPOS>ATOM
      1  N1         7.5340    0.3440   17.5810 N.ar  1001  GWS1001    -0.2410
      2  C4        13.4880   -0.5140   24.0620 C.3   1001  GWS1001     0.0000
      3  C5        13.9760   -1.6820   23.2210 C.3   1001  GWS1001     0.0000
      4  C6        13.4570   -1.5250   21.8030 C.3   1001  GWS1001     0.0000
      5  C7        11.9470   -1.3430   21.7400 C.3   1001  GWS1001     0.0005
      6  C8         7.4310    0.1160   19.8830 C.ar  1001  GWS1001     0.0925
      7  C10        5.6480    1.1680   18.7500 C.ar  1001  GWS1001     0.0220
      8  O          9.8710    0.9150   20.7010 O.2   1001  GWS1001    -0.2730
      9  C          9.3180    0.1790   21.4520 C.2   1001  GWS1001     0.2456
     10  N          8.0270   -0.3210   21.1040 N.am  1001  GWS1001    -0.1776
     11  C12        8.0960   -0.0720   18.6860 C.ar  1001  GWS1001     0.1154
     12  C11        6.3540    0.9440   17.5790 C.ar  1001  GWS1001     0.0990
     13  C9         6.1970    0.7510   19.9620 C.ar  1001  GWS1001     0.0198
     14  C1         9.9280   -0.2750   22.7730 C.3   1001  GWS1001     0.0872
     15  C2        11.4520   -0.2750   22.7120 C.3   1001  GWS1001     0.0091
     16  C3        11.9730   -0.5340   24.1180 C.3   1001  GWS1001     0.0005
@<TRIPOS>BOND
     1    12     1   ar
     2    12     7   ar
     3     1    11   ar
     4    11     6   ar
     5     7    13   ar
     6     6    13   ar
     7     6    10    1
     8     8     9    2
     9    10     9   am
    10     9    14    1
    11     5     4    1
    12     5    15    1
    13     4     3    1
    14    15    14    1
    15    15    16    1
    16     3     2    1
    17     2    16    1
