@<TRIPOS>MOLECULE
/home/pku/3cl/gett_pdb/5SR0/5SR0_mol2/ligand/5SR0_QXS.pdb
 33 35 0 0 0
SMALL
GASTEIGER

@<TRIPOS>ATOM
      1  C16      -44.3690  -29.4800    6.4980 C.ar  201  QXS201      0.1204
      2  C14      -46.6770  -29.1220    6.4050 C.ar  201  QXS201      0.1431
      3  C12      -48.7610  -28.8820    5.7220 C.ar  201  QXS201      0.0042
      4  C11      -47.9730  -29.1680    4.6160 C.ar  201  QXS201     -0.0318
      5  C10      -46.6540  -29.3180    5.0590 C.ar  201  QXS201      0.0583
      6  C02      -44.7040  -31.6910    1.5230 C.3   201  QXS201      0.0735
      7  C03      -45.5990  -31.1230    0.4210 C.3   201  QXS201     -0.0251
      8  C04      -45.2290  -29.6680    0.1330 C.3   201  QXS201     -0.0506
      9  C05      -43.7180  -29.4740    0.2670 C.3   201  QXS201     -0.0512
     10  C06      -43.2790  -29.6450    1.7240 C.3   201  QXS201     -0.0321
     11  C07      -44.2130  -30.5950    2.4740 C.3   201  QXS201      0.0479
     12  C09      -45.4030  -29.6050    4.4560 C.ar  201  QXS201      0.1315
     13  N08      -45.3390  -29.8290    3.0340 N.pl3 201  QXS201     -0.3231
     14  N13      -47.9650  -28.8570    6.7970 N.ar  201  QXS201     -0.3457
     15  N15      -45.5140  -29.2140    7.0790 N.ar  201  QXS201     -0.2178
     16  N17      -44.3020  -29.6750    5.1920 N.ar  201  QXS201     -0.2202
     17  O01      -45.4360  -32.6500    2.2490 O.3   201  QXS201     -0.3900
     18 H161      -43.4750  -29.5320    7.0970 H     201  QXS201      0.1048
     19 H121      -49.8270  -28.7190    5.7100 H     201  QXS201      0.0807
     20 H111      -48.3090  -29.2530    3.5920 H     201  QXS201      0.0640
     21 H021      -43.8320  -32.1550    1.0640 H     201  QXS201      0.0612
     22 H031      -46.6310  -31.1720    0.7440 H     201  QXS201      0.0291
     23 H032      -45.4680  -31.7260   -0.4730 H     201  QXS201      0.0291
     24 H042      -45.6840  -29.0310    0.8360 H     201  QXS201      0.0266
     25 H041      -45.6420  -29.3200   -0.7970 H     201  QXS201      0.0266
     26 H052      -43.4590  -28.4790   -0.0570 H     201  QXS201      0.0266
     27 H051      -43.2050  -30.2080   -0.3400 H     201  QXS201      0.0266
     28 H062      -43.2960  -28.6820    2.2170 H     201  QXS201      0.0284
     29 H061      -42.2700  -30.0480    1.7510 H     201  QXS201      0.0284
     30 H071      -43.6690  -31.0600    3.2890 H     201  QXS201      0.0523
     31 H081      -46.0740  -29.4690    2.4560 H     201  QXS201      0.1478
     32 H131      -48.2580  -28.6860    7.7410 H     201  QXS201      0.1668
     33 H011      -44.8880  -33.0050    2.9260 H     201  QXS201      0.2099
@<TRIPOS>BOND
     1    25     8    1
     2    23     7    1
     3    27     9    1
     4    26     9    1
     5     8     9    1
     6     8     7    1
     7     8    24    1
     8     9    10    1
     9     7    22    1
    10     7     6    1
    11    21     6    1
    12     6    17    1
    13     6    11    1
    14    10    29    1
    15    10    28    1
    16    10    11    1
    17    17    33    1
    18    31    13    1
    19    11    13    1
    20    11    30    1
    21    13    12    1
    22    20     4    1
    23    12     5   ar
    24    12    16   ar
    25     4     5   ar
    26     4     3   ar
    27     5     2   ar
    28    16     1   ar
    29    19     3    1
    30     3    14   ar
    31     2    14   ar
    32     2    15   ar
    33     1    15   ar
    34     1    18    1
    35    14    32    1
