GWY
  -OEChem-02242320023D

 29 30  0     1  0  0  0  0  0999 V2000
    1.8500   -1.6710   -0.0130 N   0  0  0  0  0  0  0  0  0  0  0  0
   -4.6030   -0.2470   -0.4800 C   0  0  0  0  0  0  0  0  0  0  0  0
   -2.6360    0.9500   -0.0130 C   0  0  0  0  0  0  0  0  0  0  0  0
    1.3310   -0.4650    0.2000 C   0  0  0  0  0  0  0  0  0  0  0  0
    3.0680   -1.8030   -0.4990 C   0  0  0  0  0  0  0  0  0  0  0  0
    3.3700    0.4750   -0.6100 C   0  0  0  0  0  0  0  0  0  0  0  0
    1.4690    2.2610    0.1550 Cl  0  0  0  0  0  0  0  0  0  0  0  0
    2.0980    0.6630   -0.1020 C   0  0  0  0  0  0  0  0  0  0  0  0
    3.8170   -0.7590   -0.7930 N   0  0  0  0  0  0  0  0  0  0  0  0
    0.0500   -0.3300    0.7110 N   0  0  2  0  0  0  0  0  0  0  0  0
   -0.0450   -0.9160    2.0540 C   0  0  0  0  0  0  0  0  0  0  0  0
   -0.9430   -0.9230   -0.1940 C   0  0  0  0  0  0  0  0  0  0  0  0
   -2.3500   -0.5400    0.2710 C   0  0  2  0  0  0  0  0  0  0  0  0
   -3.9870    1.0500   -0.4790 O   0  0  0  0  0  0  0  0  0  0  0  0
   -3.4290   -1.2530   -0.5890 C   0  0  0  0  0  0  0  0  0  0  0  0
   -5.1520   -0.4060    0.4480 H   0  0  0  0  0  0  0  0  0  0  0  0
   -5.2710   -0.3490   -1.3360 H   0  0  0  0  0  0  0  0  0  0  0  0
   -2.5170    1.5300    0.9020 H   0  0  0  0  0  0  0  0  0  0  0  0
   -1.9530    1.3200   -0.7770 H   0  0  0  0  0  0  0  0  0  0  0  0
    3.4630   -2.7950   -0.6610 H   0  0  0  0  0  0  0  0  0  0  0  0
    3.9920    1.3240   -0.8540 H   0  0  0  0  0  0  0  0  0  0  0  0
    0.7250   -0.4860    2.6940 H   0  0  0  0  0  0  0  0  0  0  0  0
   -1.0280   -0.7030    2.4750 H   0  0  0  0  0  0  0  0  0  0  0  0
    0.0970   -1.9950    1.9900 H   0  0  0  0  0  0  0  0  0  0  0  0
   -0.7810   -0.5500   -1.2060 H   0  0  0  0  0  0  0  0  0  0  0  0
   -0.8400   -2.0080   -0.1860 H   0  0  0  0  0  0  0  0  0  0  0  0
   -2.4830   -0.7700    1.3280 H   0  0  0  0  0  0  0  0  0  0  0  0
   -3.6980   -2.2190   -0.1610 H   0  0  0  0  0  0  0  0  0  0  0  0
   -3.0990   -1.3610   -1.6230 H   0  0  0  0  0  0  0  0  0  0  0  0
  6  9  2  0  0  0  0
  5  9  1  0  0  0  0
  6  8  1  0  0  0  0
  1  5  2  0  0  0  0
  7  8  1  0  0  0  0
  4  8  2  0  0  0  0
  1  4  1  0  0  0  0
  4 10  1  0  0  0  0
 10 11  1  0  0  0  0
 10 12  1  0  0  0  0
 12 13  1  0  0  0  0
 13 15  1  0  0  0  0
  3 13  1  0  0  0  0
  2 15  1  0  0  0  0
  3 14  1  0  0  0  0
  2 14  1  0  0  0  0
  2 16  1  0  0  0  0
  2 17  1  0  0  0  0
  3 18  1  0  0  0  0
  3 19  1  0  0  0  0
  5 20  1  0  0  0  0
  6 21  1  0  0  0  0
 11 22  1  0  0  0  0
 11 23  1  0  0  0  0
 11 24  1  0  0  0  0
 12 25  1  0  0  0  0
 12 26  1  0  0  0  0
 13 27  1  0  0  0  0
 15 28  1  0  0  0  0
 15 29  1  0  0  0  0
M  END
> <OPENEYE_ISO_SMILES>
C[N@](C[C@@H]1CCOC1)c2c(cncn2)Cl

> <OPENEYE_INCHI>
InChI=1S/C10H14ClN3O/c1-14(5-8-2-3-15-6-8)10-9(11)4-12-7-13-10/h4,7-8H,2-3,5-6H2,1H3/t8-/m0/s1

> <OPENEYE_INCHIKEY>
OYKZBUOZAYBEHE-QMMMGPOBSA-N

> <FORMULA>
C10H14ClN3O

$$$$
