@<TRIPOS>MOLECULE
/home/pku/3cl/gett_pdb/5S2C/5S2C_mol2/ligand/5S2C_WSJ.pdb
 19 20 0 0 0
SMALL
GASTEIGER

@<TRIPOS>ATOM
      1  N1        -0.8770    9.5460   -7.2290 N.ar  201  WSJ201     -0.2645
      2  N3        -0.1190   12.1590   -4.9020 N.pl3 201  WSJ201     -0.0945
      3  C4         0.7280   11.1560   -7.0920 C.ar  201  WSJ201      0.2968
      4  C5         0.9020    9.5280   -8.9740 C.ar  201  WSJ201      0.0841
      5  C6         1.5710   10.3090   -9.9090 C.ar  201  WSJ201      0.0192
      6  C7         2.3230    9.6930  -10.8970 C.ar  201  WSJ201      0.0015
      7  C8         2.5340    8.3300  -10.8660 C.ar  201  WSJ201      0.0001
      8  C10        1.1800    8.1690   -8.8880 C.ar  201  WSJ201      0.0192
      9  C1        -2.3820   10.0810   -5.3130 C.3   201  WSJ201      0.0533
     10  C2        -1.1970   10.3530   -6.1720 C.ar  201  WSJ201      0.0760
     11  C3        -1.7490    8.5820   -7.8990 C.3   201  WSJ201      0.1518
     12  N2         0.1890   10.1680   -7.9110 N.ar  201  WSJ201     -0.2133
     13  O1         1.7400   11.8120   -7.3860 O.2   201  WSJ201     -0.2637
     14  C9         1.9570    7.5700   -9.8690 C.ar  201  WSJ201      0.0015
     15  C11       -0.1980   11.2660   -5.9870 C.ar  201  WSJ201      0.1612
     16  S1         0.8960   11.9360   -3.6240 S.O2  201  WSJ201      0.0752
     17  C12        2.4490   12.6190   -4.1010 C.3   201  WSJ201      0.2016
     18  O2         1.0440   10.5340   -3.4260 O.2   201  WSJ201     -0.1528
     19  O3         0.3930   12.7110   -2.5410 O.2   201  WSJ201     -0.1528
@<TRIPOS>BOND
     1     6     7   ar
     2     6     5   ar
     3     7    14   ar
     4     5     4   ar
     5    14     8   ar
     6     4     8   ar
     7     4    12    1
     8    12     1   ar
     9    12     3   ar
    10    11     1    1
    11    13     3    2
    12     1    10   ar
    13     3    15   ar
    14    10    15   ar
    15    10     9    1
    16    15     2    1
    17     2    16    1
    18    17    16    1
    19    16    18    2
    20    16    19    2
