2UP
  -OEChem-02242320003D

 23 24  0     0  0  0  0  0  0999 V2000
   -0.4320   -0.9250    0.0040 C   0  0  0  0  0  0  0  0  0  0  0  0
    0.9250   -0.5680    0.0020 C   0  0  0  0  0  0  0  0  0  0  0  0
    1.9340   -1.5470    0.0020 C   0  0  0  0  0  0  0  0  0  0  0  0
    3.2410   -1.1680   -0.0000 C   0  0  0  0  0  0  0  0  0  0  0  0
    3.5960    0.1800   -0.0020 C   0  0  0  0  0  0  0  0  0  0  0  0
    2.6460    1.1550   -0.0020 C   0  0  0  0  0  0  0  0  0  0  0  0
    1.2860    0.8030   -0.0000 C   0  0  0  0  0  0  0  0  0  0  0  0
    0.2810    1.7870   -0.0010 C   0  0  0  0  0  0  0  0  0  0  0  0
   -1.0260    1.4230    0.0010 C   0  0  0  0  0  0  0  0  0  0  0  0
   -1.3960    0.0670   -0.0030 C   0  0  0  0  0  0  0  0  0  0  0  0
   -2.8300   -0.3030   -0.0010 C   0  0  0  0  0  0  0  0  0  0  0  0
   -3.1790   -1.5580   -0.0040 N   0  0  0  0  0  0  0  0  0  0  0  0
   -3.7950    0.6800    0.0030 N   0  0  0  0  0  0  0  0  0  0  0  0
   -0.7210   -1.9660    0.0050 H   0  0  0  0  0  0  0  0  0  0  0  0
    1.6740   -2.5950    0.0040 H   0  0  0  0  0  0  0  0  0  0  0  0
    4.0150   -1.9210   -0.0000 H   0  0  0  0  0  0  0  0  0  0  0  0
    4.6410    0.4550   -0.0020 H   0  0  0  0  0  0  0  0  0  0  0  0
    2.9370    2.1950   -0.0030 H   0  0  0  0  0  0  0  0  0  0  0  0
    0.5500    2.8330    0.0020 H   0  0  0  0  0  0  0  0  0  0  0  0
   -1.7920    2.1840    0.0000 H   0  0  0  0  0  0  0  0  0  0  0  0
   -4.1180   -1.8000   -0.0040 H   0  0  0  0  0  0  0  0  0  0  0  0
   -3.5350    1.6150    0.0050 H   0  0  0  0  0  0  0  0  0  0  0  0
   -4.7340    0.4380    0.0040 H   0  0  0  0  0  0  0  0  0  0  0  0
  8  9  2  0  0  0  0
  7  8  1  0  0  0  0
  9 10  1  0  0  0  0
  6  7  2  0  0  0  0
  5  6  1  0  0  0  0
  2  7  1  0  0  0  0
  4  5  2  0  0  0  0
 10 11  1  0  0  0  0
  1 10  2  0  0  0  0
 11 12  2  0  0  0  0
 11 13  1  0  0  0  0
  1  2  1  0  0  0  0
  2  3  2  0  0  0  0
  3  4  1  0  0  0  0
  1 14  1  0  0  0  0
  3 15  1  0  0  0  0
  4 16  1  0  0  0  0
  5 17  1  0  0  0  0
  6 18  1  0  0  0  0
  8 19  1  0  0  0  0
  9 20  1  0  0  0  0
 12 21  1  0  0  0  0
 13 22  1  0  0  0  0
 13 23  1  0  0  0  0
M  END
> <OPENEYE_ISO_SMILES>
[H]/N=C(/c1ccc2ccccc2c1)\N

> <OPENEYE_INCHI>
InChI=1S/C11H10N2/c12-11(13)10-6-5-8-3-1-2-4-9(8)7-10/h1-7H,(H3,12,13)

> <OPENEYE_INCHIKEY>
URXJHZXEUUFNKM-UHFFFAOYSA-N

> <FORMULA>
C11H10N2

$$$$
