VZP
  -OEChem-02242320043D

 33 33  0     1  0  0  0  0  0999 V2000
    0.6190   -0.3620    0.2210 N   0  0  0  0  0  0  0  0  0  0  0  0
    0.6120   -1.7100    0.7940 C   0  0  0  0  0  0  0  0  0  0  0  0
   -0.6400    0.3700    0.0550 C   0  0  2  0  0  0  0  0  0  0  0  0
   -1.3190    0.5480    1.4240 C   0  0  0  0  0  0  0  0  0  0  0  0
   -2.7700    1.0180    1.1420 C   0  0  0  0  0  0  0  0  0  0  0  0
   -1.5850   -0.4280   -0.8650 C   0  0  0  0  0  0  0  0  0  0  0  0
   -3.9530    0.7330   -1.2290 O   0  0  0  0  0  0  0  0  0  0  0  0
   -3.2700   -0.0510   -0.2610 S   0  0  0  0  0  0  0  0  0  0  0  0
   -3.8690   -1.2370    0.2420 O   0  0  0  0  0  0  0  0  0  0  0  0
    1.7830    0.2080   -0.1470 C   0  0  0  0  0  0  0  0  0  0  0  0
    1.7880    1.3300   -0.6180 O   0  0  0  0  0  0  0  0  0  0  0  0
    2.9410   -0.4640    0.0050 N   0  0  0  0  0  0  0  0  0  0  0  0
    4.2060    0.1560   -0.3960 C   0  0  0  0  0  0  0  0  0  0  0  0
    4.7320    1.0270    0.7470 C   0  0  0  0  0  0  0  0  0  0  0  0
    5.2290   -0.9360   -0.7170 C   0  0  0  0  0  0  0  0  0  0  0  0
    0.5030   -2.4440   -0.0050 H   0  0  0  0  0  0  0  0  0  0  0  0
    1.5500   -1.8850    1.3220 H   0  0  0  0  0  0  0  0  0  0  0  0
   -0.2200   -1.8050    1.4910 H   0  0  0  0  0  0  0  0  0  0  0  0
   -0.4410    1.3470   -0.3850 H   0  0  0  0  0  0  0  0  0  0  0  0
   -1.3320   -0.4010    1.9610 H   0  0  0  0  0  0  0  0  0  0  0  0
   -0.7890    1.3000    2.0090 H   0  0  0  0  0  0  0  0  0  0  0  0
   -3.4080    0.8440    2.0080 H   0  0  0  0  0  0  0  0  0  0  0  0
   -2.7860    2.0700    0.8560 H   0  0  0  0  0  0  0  0  0  0  0  0
   -1.4720   -0.1010   -1.8990 H   0  0  0  0  0  0  0  0  0  0  0  0
   -1.3820   -1.4960   -0.7830 H   0  0  0  0  0  0  0  0  0  0  0  0
    2.9360   -1.3580    0.3810 H   0  0  0  0  0  0  0  0  0  0  0  0
    4.0440    0.7730   -1.2790 H   0  0  0  0  0  0  0  0  0  0  0  0
    4.8930    0.4100    1.6300 H   0  0  0  0  0  0  0  0  0  0  0  0
    5.6730    1.4880    0.4480 H   0  0  0  0  0  0  0  0  0  0  0  0
    4.0030    1.8050    0.9750 H   0  0  0  0  0  0  0  0  0  0  0  0
    4.8550   -1.5570   -1.5310 H   0  0  0  0  0  0  0  0  0  0  0  0
    6.1710   -0.4750   -1.0150 H   0  0  0  0  0  0  0  0  0  0  0  0
    5.3910   -1.5530    0.1670 H   0  0  0  0  0  0  0  0  0  0  0  0
  8  9  2  0  0  0  0
  1  2  1  0  0  0  0
  7  8  2  0  0  0  0
  5  8  1  0  0  0  0
  6  8  1  0  0  0  0
  4  5  1  0  0  0  0
  3  6  1  0  0  0  0
  1  3  1  0  0  0  0
  1 10  1  0  0  0  0
  3  4  1  0  0  0  0
 10 12  1  0  0  0  0
 12 13  1  0  0  0  0
 10 11  2  0  0  0  0
 13 15  1  0  0  0  0
 13 14  1  0  0  0  0
  2 16  1  0  0  0  0
  2 17  1  0  0  0  0
  2 18  1  0  0  0  0
  3 19  1  0  0  0  0
  4 20  1  0  0  0  0
  4 21  1  0  0  0  0
  5 22  1  0  0  0  0
  5 23  1  0  0  0  0
  6 24  1  0  0  0  0
  6 25  1  0  0  0  0
 12 26  1  0  0  0  0
 13 27  1  0  0  0  0
 14 28  1  0  0  0  0
 14 29  1  0  0  0  0
 14 30  1  0  0  0  0
 15 31  1  0  0  0  0
 15 32  1  0  0  0  0
 15 33  1  0  0  0  0
M  END
> <OPENEYE_ISO_SMILES>
CC(C)NC(=O)N(C)[C@@H]1CCS(=O)(=O)C1

> <OPENEYE_INCHI>
InChI=1S/C9H18N2O3S/c1-7(2)10-9(12)11(3)8-4-5-15(13,14)6-8/h7-8H,4-6H2,1-3H3,(H,10,12)/t8-/m1/s1

> <OPENEYE_INCHIKEY>
RMWFRPZNASSVCZ-MRVPVSSYSA-N

> <FORMULA>
C9H18N2O3S

$$$$
