RWC
  -OEChem-02242320043D

 49 52  0     1  0  0  0  0  0999 V2000
   -4.9710    0.0000    0.0550 C   0  0  0  0  0  0  0  0  0  0  0  0
   -7.3770    0.3890    0.0370 C   0  0  0  0  0  0  0  0  0  0  0  0
   -8.4960    0.2510   -0.9970 C   0  0  0  0  0  0  0  0  0  0  0  0
   -1.0710    1.3010    0.9200 C   0  0  0  0  0  0  0  0  0  0  0  0
   -2.3420    0.7770    0.8520 C   0  0  0  0  0  0  0  0  0  0  0  0
   -8.7080   -0.2520    0.4320 C   0  0  0  0  0  0  0  0  0  0  0  0
    6.1830    2.2260   -0.2630 C   0  0  0  0  0  0  0  0  0  0  0  0
    5.0660    3.0410   -0.2520 C   0  0  0  0  0  0  0  0  0  0  0  0
   -1.6040   -0.8180   -0.7990 C   0  0  0  0  0  0  0  0  0  0  0  0
   -2.6140   -0.2830   -0.0070 C   0  0  0  0  0  0  0  0  0  0  0  0
   -0.3300   -0.3000   -0.7360 C   0  0  0  0  0  0  0  0  0  0  0  0
   -0.0530    0.7660    0.1250 C   0  0  0  0  0  0  0  0  0  0  0  0
    1.3110    1.3240    0.1950 C   0  0  0  0  0  0  0  0  0  0  0  0
    3.8060    2.4800   -0.2010 C   0  0  0  0  0  0  0  0  0  0  0  0
    3.1150   -3.1220    0.2240 C   0  0  0  0  0  0  0  0  0  0  0  0
    3.2980   -1.6370    0.4030 C   0  0  2  0  0  0  0  0  0  0  0  0
    2.2010   -0.8880   -0.3540 C   0  0  0  0  0  0  0  0  0  0  0  0
    3.6600    1.0980   -0.1630 C   0  0  0  0  0  0  0  0  0  0  0  0
    4.7800    0.2820   -0.1770 C   0  0  0  0  0  0  0  0  0  0  0  0
    4.6610   -1.2190   -0.1480 C   0  0  0  0  0  0  0  0  0  0  0  0
    6.0410    0.8530   -0.2310 C   0  0  0  0  0  0  0  0  0  0  0  0
    2.3730    0.5490   -0.1000 N   0  0  0  0  0  0  0  0  0  0  0  0
   -3.9030   -0.8120   -0.0730 N   0  0  0  0  0  0  0  0  0  0  0  0
   -6.2160   -0.4930   -0.1020 N   0  0  0  0  0  0  0  0  0  0  0  0
    2.1950   -3.5420   -0.4380 O   0  0  0  0  0  0  0  0  0  0  0  0
   -4.8130    1.1770    0.3160 O   0  0  0  0  0  0  0  0  0  0  0  0
    1.4770    2.4850    0.5180 O   0  0  0  0  0  0  0  0  0  0  0  0
    3.9720   -3.9780    0.8010 O   0  0  0  0  0  0  0  0  0  0  0  0
   -7.1660    1.3870    0.4200 H   0  0  0  0  0  0  0  0  0  0  0  0
   -9.0210    1.1590   -1.2940 H   0  0  0  0  0  0  0  0  0  0  0  0
   -8.3680   -0.4960   -1.7810 H   0  0  0  0  0  0  0  0  0  0  0  0
   -0.8610    2.1260    1.5830 H   0  0  0  0  0  0  0  0  0  0  0  0
   -3.1290    1.1900    1.4660 H   0  0  0  0  0  0  0  0  0  0  0  0
   -8.7210   -1.3310    0.5890 H   0  0  0  0  0  0  0  0  0  0  0  0
   -9.3730    0.3240    1.0750 H   0  0  0  0  0  0  0  0  0  0  0  0
    7.1690    2.6650   -0.3010 H   0  0  0  0  0  0  0  0  0  0  0  0
    5.1790    4.1150   -0.2810 H   0  0  0  0  0  0  0  0  0  0  0  0
   -1.8190   -1.6420   -1.4640 H   0  0  0  0  0  0  0  0  0  0  0  0
    0.4540   -0.7150   -1.3520 H   0  0  0  0  0  0  0  0  0  0  0  0
    2.9320    3.1150   -0.1920 H   0  0  0  0  0  0  0  0  0  0  0  0
    3.2400   -1.3870    1.4630 H   0  0  0  0  0  0  0  0  0  0  0  0
    2.2910   -1.0830   -1.4220 H   0  0  0  0  0  0  0  0  0  0  0  0
    1.2220   -1.2120   -0.0000 H   0  0  0  0  0  0  0  0  0  0  0  0
    5.4470   -1.6300    0.4860 H   0  0  0  0  0  0  0  0  0  0  0  0
    4.7750   -1.6090   -1.1590 H   0  0  0  0  0  0  0  0  0  0  0  0
    6.9170    0.2210   -0.2400 H   0  0  0  0  0  0  0  0  0  0  0  0
   -4.0310   -1.7630   -0.2100 H   0  0  0  0  0  0  0  0  0  0  0  0
   -6.3420   -1.4330   -0.3060 H   0  0  0  0  0  0  0  0  0  0  0  0
    3.8140   -4.9220    0.6580 H   0  0  0  0  0  0  0  0  0  0  0  0
 15 25  2  0  0  0  0
 15 28  1  0  0  0  0
 15 16  1  0  0  0  0
 16 17  1  0  0  0  0
 17 22  1  0  0  0  0
 13 27  2  0  0  0  0
 16 20  1  0  0  0  0
 13 22  1  0  0  0  0
 18 22  1  0  0  0  0
 12 13  1  0  0  0  0
 19 20  1  0  0  0  0
 18 19  2  0  0  0  0
 14 18  1  0  0  0  0
 19 21  1  0  0  0  0
  8 14  2  0  0  0  0
  4 12  2  0  0  0  0
  4  5  1  0  0  0  0
 11 12  1  0  0  0  0
  7 21  2  0  0  0  0
  7  8  1  0  0  0  0
  5 10  2  0  0  0  0
  9 11  2  0  0  0  0
  9 10  1  0  0  0  0
 10 23  1  0  0  0  0
  1 26  2  0  0  0  0
  1 23  1  0  0  0  0
  1 24  1  0  0  0  0
  2 24  1  0  0  0  0
  2  6  1  0  0  0  0
  2  3  1  0  0  0  0
  3  6  1  0  0  0  0
  2 29  1  0  0  0  0
  3 30  1  0  0  0  0
  3 31  1  0  0  0  0
  4 32  1  0  0  0  0
  5 33  1  0  0  0  0
  6 34  1  0  0  0  0
  6 35  1  0  0  0  0
  7 36  1  0  0  0  0
  8 37  1  0  0  0  0
  9 38  1  0  0  0  0
 11 39  1  0  0  0  0
 14 40  1  0  0  0  0
 16 41  1  0  0  0  0
 17 42  1  0  0  0  0
 17 43  1  0  0  0  0
 20 44  1  0  0  0  0
 20 45  1  0  0  0  0
 21 46  1  0  0  0  0
 23 47  1  0  0  0  0
 24 48  1  0  0  0  0
 28 49  1  0  0  0  0
M  END
> <OPENEYE_ISO_SMILES>
c1ccc2c(c1)C[C@@H](CN2C(=O)c3ccc(cc3)NC(=O)NC4CC4)C(=O)O

> <OPENEYE_INCHI>
InChI=1S/C21H21N3O4/c25-19(13-5-7-16(8-6-13)22-21(28)23-17-9-10-17)24-12-15(20(26)27)11-14-3-1-2-4-18(14)24/h1-8,15,17H,9-12H2,(H,26,27)(H2,22,23,28)/t15-/m0/s1

> <OPENEYE_INCHIKEY>
AOHBVEDXTIZALI-HNNXBMFYSA-N

> <FORMULA>
C21H21N3O4

$$$$
