@<TRIPOS>MOLECULE
/home/pku/3cl/gett_pdb/5RTB/5RTB_mol2/ligand/5RTB_3XH.pdb
 22 22 0 0 0
SMALL
GASTEIGER

@<TRIPOS>ATOM
      1  O11      -42.8430  -29.9670    1.6660 O.co2 201  3XH201     -0.8465
      2  C10      -43.8200  -30.0940    2.3910 C.2   201  3XH201      0.1046
      3  O12      -43.6720  -30.5640    3.4760 O.co2 201  3XH201     -0.3073
      4  C9       -45.2310  -29.6030    1.9260 C.3   201  3XH201      0.0607
      5  N8       -46.0860  -29.5170    3.0210 N.am  201  3XH201     -0.3053
      6  C7       -47.3970  -29.0300    2.8650 C.2   201  3XH201      0.2445
      7  O14      -47.7930  -28.7460    1.8590 O.2   201  3XH201     -0.2702
      8  C6       -48.2400  -29.0230    4.1140 C.ar  201  3XH201      0.0401
      9  C5       -47.6320  -29.0050    5.3190 C.ar  201  3XH201     -0.0494
     10  C4       -48.3930  -29.0320    6.4930 C.ar  201  3XH201     -0.0576
     11  C3       -49.7960  -29.0680    6.3870 C.ar  201  3XH201     -0.0201
     12  C2       -50.3820  -29.0910    5.1420 C.ar  201  3XH201      0.1176
     13  O13      -51.6970  -29.1770    4.9700 O.3   201  3XH201     -0.5067
     14  C1       -49.6430  -29.0700    3.9910 C.ar  201  3XH201     -0.0081
     15  H9       -45.1480  -28.7290    1.5130 H     201  3XH201      0.0532
     16  H9A      -45.5940  -30.2310    1.2820 H     201  3XH201      0.0532
     17  HN8      -45.8040  -29.7570    3.7960 H     201  3XH201      0.1494
     18  H5       -46.7040  -28.9690    5.3700 H     201  3XH201      0.0625
     19  H4       -47.9810  -29.0010    7.3260 H     201  3XH201      0.0619
     20  H3       -50.3230  -29.0870    7.1530 H     201  3XH201      0.0654
     21 HO13      -51.9330  -29.9930    4.9910 H     201  3XH201      0.2921
     22  H1       -50.0570  -29.1060    3.1620 H     201  3XH201      0.0661
@<TRIPOS>UNITY_ATOM_ATTR
1 1
charge -1
@<TRIPOS>BOND
     1    16     4    1
     2    15     4    1
     3     1     2   ar
     4     7     6    2
     5     4     2    1
     6     4     5    1
     7     2     3   ar
     8     6     5   am
     9     6     8    1
    10     5    17    1
    11    22    14    1
    12    14     8   ar
    13    14    12   ar
    14     8     9   ar
    15    13    21    1
    16    13    12    1
    17    12    11   ar
    18     9    18    1
    19     9    10   ar
    20    11    10   ar
    21    11    20    1
    22    10    19    1
