@<TRIPOS>MOLECULE
/home/pku/3cl/gett_pdb/6W5K/6W5K_mol2/ligand/6W5K_TKV.pdb
 27 27 0 0 0
SMALL
GASTEIGER

@<TRIPOS>ATOM
      1  C01      -25.4660   20.5540   22.6590 C.3   201  TKV201      0.0037
      2  C02      -23.9360   20.6870   22.4870 C.3   201  TKV201      0.0406
      3  C03      -23.4390   22.0660   23.1070 C.3   201  TKV201      0.2099
      4  C05      -21.6820   23.6380   22.4200 C.2   201  TKV201      0.4215
      5  C07      -19.4170   24.7850   21.9090 C.3   201  TKV201      0.1761
      6  C08      -18.2130   24.8080   20.8560 C.3   201  TKV201      0.0312
      7  C09      -17.3430   23.4620   20.8470 C.3   201  TKV201      0.0022
      8  C10      -15.9980   23.6950   20.1000 C.3   201  TKV201      0.0001
      9  C11      -17.0290   22.9180   22.2640 C.3   201  TKV201      0.0001
     10  C12      -19.8190   26.2700   22.1870 C.2   201  TKV201      0.2614
     11  C14      -19.6350   28.4920   23.4310 C.3   201  TKV201      0.1287
     12  C15      -20.6050   28.5420   24.6810 C.3   201  TKV201      0.0335
     13  C16      -21.8290   27.5780   24.5450 C.3   201  TKV201      0.0818
     14  C17      -22.6410   27.5820   25.8110 C.2   201  TKV201      0.2410
     15  C19      -24.2360   27.8470   24.0820 C.3   201  TKV201      0.1156
     16  C20      -22.8190   28.0370   23.4690 C.3   201  TKV201      0.0326
     17  C22      -18.3660   29.3480   23.7950 C.3   201  TKV201      0.2036
     18  C26      -23.6230   20.7430   20.9680 C.3   201  TKV201      0.0037
     19  C27      -23.1590   19.4620   23.1790 C.3   201  TKV201      0.0037
     20  N06      -20.6460   23.9840   21.4650 N.am  201  TKV201     -0.1611
     21  N13      -19.2270   27.0760   23.1830 N.am  201  TKV201     -0.2030
     22  N18      -24.0410   27.7420   25.5680 N.am  201  TKV201     -0.2054
     23  O04      -22.8550   22.9130   22.0620 O.3   201  TKV201     -0.4335
     24  O21      -22.1650   27.4730   26.9460 O.2   201  TKV201     -0.2734
     25  O23      -17.6300   29.4280   22.5410 O.3   201  TKV201     -0.2185
     26  O24      -20.7210   26.7860   21.4730 O.2   201  TKV201     -0.2715
     27  O25      -21.5880   23.9690   23.6130 O.2   201  TKV201     -0.2246
@<TRIPOS>BOND
     1     8     7    1
     2     7     6    1
     3     7     9    1
     4     6     5    1
     5    18     2    1
     6    20     5    1
     7    20     4   am
     8    26    10    2
     9     5    10    1
    10    23     4    1
    11    23     3    1
    12    10    21   am
    13     4    27    2
    14     2     1    1
    15     2     3    1
    16     2    19    1
    17    25    17    1
    18    21    11    1
    19    11    17    1
    20    11    12    1
    21    16    15    1
    22    16    13    1
    23    15    22    1
    24    13    12    1
    25    13    14    1
    26    22    14   am
    27    14    24    2
