@<TRIPOS>MOLECULE
/home/pku/3cl/gett_pdb/6W81/6W81_mol2/ligand/6W81_X77.pdb
 66 69 0 0 0
SMALL
GASTEIGER

@<TRIPOS>ATOM
      1  C02      -36.6230   82.5180    1.7780 C.2   401  X77401      0.2682
      2  C04      -39.0010   82.1300    1.1240 C.3   401  X77401      0.1338
      3  C05      -39.8690   81.7220   -0.0900 C.2   401  X77401      0.2387
      4  C07      -41.6180   82.0570   -1.9160 C.3   401  X77401      0.0232
      5  C08      -42.4400   83.1760   -2.5460 C.3   401  X77401     -0.0345
      6  C09      -43.1810   82.7220   -3.8120 C.3   401  X77401     -0.0514
      7  C10      -42.2520   82.1530   -4.8420 C.3   401  X77401     -0.0529
      8  C11      -40.8160   82.1390   -4.3660 C.3   401  X77401     -0.0514
      9  C12      -40.6610   81.4780   -2.9820 C.3   401  X77401     -0.0345
     10  C14      -39.4100   81.1460    2.2020 C.ar  401  X77401      0.0002
     11  C15      -40.3200   81.5710    3.1220 C.ar  401  X77401     -0.0534
     12  C16      -40.7400   80.7240    4.1120 C.ar  401  X77401     -0.0433
     13  C17      -40.2440   79.4300    4.1500 C.ar  401  X77401      0.0276
     14  C19      -38.9410   79.8540    2.2470 C.ar  401  X77401      0.0330
     15  C20      -37.2410   82.0450   -0.7500 C.ar  401  X77401      0.0378
     16  C21      -37.3280   83.1760   -1.5640 C.ar  401  X77401     -0.0400
     17  C22      -37.0090   83.1020   -2.9370 C.ar  401  X77401     -0.0563
     18  C23      -36.6070   81.8930   -3.4960 C.ar  401  X77401     -0.0419
     19  C24      -36.2500   81.8210   -5.0240 C.3   401  X77401     -0.0127
     20  C25      -36.0120   80.3760   -5.4640 C.3   401  X77401     -0.0560
     21  C26      -34.9670   82.6250   -5.2880 C.3   401  X77401     -0.0560
     22  C27      -37.3810   82.4330   -5.8450 C.3   401  X77401     -0.0560
     23  C28      -36.5250   80.7520   -2.6860 C.ar  401  X77401     -0.0563
     24  C29      -36.8440   80.8230   -1.3110 C.ar  401  X77401     -0.0400
     25  C30      -35.1120   82.7030    1.5550 C.2   401  X77401      0.1317
     26  C31      -34.4910   83.1610    0.4140 C.3   401  X77401      0.1272
     27  C33      -32.9980   82.8060    1.9150 C.2   401  X77401      0.1120
     28  N03      -37.5990   82.1910    0.7060 N.am  401  X77401     -0.2503
     29  N06      -40.8780   82.6040   -0.7700 N.am  401  X77401     -0.3106
     30  N18      -39.3580   79.0150    3.2160 N.ar  401  X77401     -0.2629
     31  N32      -33.1950   83.2040    0.6600 N.2   401  X77401     -0.2600
     32  N34      -34.1830   82.5080    2.4720 N.2   401  X77401     -0.2333
     33  O01      -37.0270   82.6510    2.8830 O.2   401  X77401     -0.2682
     34  O13      -39.7350   80.6250   -0.5280 O.2   401  X77401     -0.2734
     35 H041      -39.1310   83.0190    1.4900 H     401  X77401      0.0652
     36 H071      -42.1890   81.3400   -1.5990 H     401  X77401      0.0498
     37 H081      -41.8460   83.9060   -2.7780 H     401  X77401      0.0283
     38 H082      -43.0920   83.4860   -1.8980 H     401  X77401      0.0283
     39 H091      -43.6420   83.4840   -4.1950 H     401  X77401      0.0266
     40 H092      -43.8300   82.0430   -3.5680 H     401  X77401      0.0266
     41 H101      -42.5250   81.2440   -5.0420 H     401  X77401      0.0265
     42 H102      -42.3110   82.6900   -5.6470 H     401  X77401      0.0265
     43 H112      -40.2790   81.6490   -5.0080 H     401  X77401      0.0266
     44 H111      -40.4960   83.0540   -4.3130 H     401  X77401      0.0266
     45 H121      -40.8390   80.5290   -3.0730 H     401  X77401      0.0283
     46 H122      -39.7490   81.6060   -2.6800 H     401  X77401      0.0283
     47 H151      -40.6560   82.4370    3.0780 H     401  X77401      0.0622
     48 H161      -41.3510   81.0130    4.7510 H     401  X77401      0.0633
     49 H171      -40.5210   78.8460    4.8190 H     401  X77401      0.0829
     50 H191      -38.3350   79.5580    1.6060 H     401  X77401      0.0833
     51 H211      -37.5990   83.9870   -1.1980 H     401  X77401      0.0636
     52 H221      -37.0670   83.8620   -3.4690 H     401  X77401      0.0621
     53 H251      -35.9100   80.3440   -6.4280 H     401  X77401      0.0238
     54 H252      -36.7690   79.8290   -5.2020 H     401  X77401      0.0238
     55 H253      -35.2070   80.0380   -5.0420 H     401  X77401      0.0238
     56 H261      -35.1690   83.5730   -5.2630 H     401  X77401      0.0238
     57 H263      -34.6140   82.3920   -6.1610 H     401  X77401      0.0238
     58 H262      -34.3090   82.4160   -4.6060 H     401  X77401      0.0238
     59 H272      -37.3500   83.3990   -5.7670 H     401  X77401      0.0238
     60 H273      -38.2330   82.1090   -5.5130 H     401  X77401      0.0238
     61 H271      -37.2780   82.1790   -6.7750 H     401  X77401      0.0238
     62 H281      -36.2590   79.9410   -3.0570 H     401  X77401      0.0621
     63 H291      -36.7910   80.0620   -0.7800 H     401  X77401      0.0636
     64 H311      -34.9080   83.3960   -0.3830 H     401  X77401      0.0637
     65 H331      -32.1720   82.7440    2.3380 H     401  X77401      0.1043
     66 H061      -41.0190   83.4070   -0.4960 H     401  X77401      0.1490
@<TRIPOS>BOND
     1    61    22    1
     2    53    20    1
     3    57    21    1
     4    22    59    1
     5    22    60    1
     6    22    19    1
     7    42     7    1
     8    20    54    1
     9    20    55    1
    10    20    19    1
    11    21    56    1
    12    21    19    1
    13    21    58    1
    14    41     7    1
    15    19    18    1
    16    43     8    1
    17     7     8    1
    18     7     6    1
    19     8    44    1
    20     8     9    1
    21    39     6    1
    22     6    40    1
    23     6     5    1
    24    18    17   ar
    25    18    23   ar
    26    52    17    1
    27    45     9    1
    28    62    23    1
    29     9    46    1
    30     9     4    1
    31    17    16   ar
    32    37     5    1
    33    23    24   ar
    34     5     4    1
    35     5    38    1
    36     4    36    1
    37     4    29    1
    38    16    51    1
    39    16    15   ar
    40    24    63    1
    41    24    15   ar
    42    29    66    1
    43    29     3   am
    44    15    28    1
    45    34     3    2
    46    64    26    1
    47     3     2    1
    48    26    31    1
    49    26    25    1
    50    31    27    2
    51    28     2    1
    52    28     1   am
    53     2    35    1
    54     2    10    1
    55    25     1    1
    56    25    32    2
    57    50    14    1
    58     1    33    2
    59    27    65    1
    60    27    32    1
    61    10    14   ar
    62    10    11   ar
    63    14    30   ar
    64    47    11    1
    65    11    12   ar
    66    30    13   ar
    67    12    13   ar
    68    12    48    1
    69    13    49    1
