@<TRIPOS>MOLECULE
/home/pku/3cl/gett_pdb/5SOO/5SOO_mol2/ligand/5SOO_WW4.pdb
 35 38 0 0 0
SMALL
GASTEIGER

@<TRIPOS>ATOM
      1  N12      -47.6440  -28.9580    6.5400 N.ar  201  WW4201     -0.3479
      2  C13      -48.5780  -28.8600    5.6530 C.ar  201  WW4201      0.0038
      3  C15      -46.6170  -29.0980    4.6590 C.ar  201  WW4201      0.0397
      4  C01      -44.4290  -30.6600   -0.6280 C.3   201  WW4201      0.0001
      5  C02      -44.7270  -29.4440    0.2880 C.3   201  WW4201     -0.0211
      6  C03      -46.1660  -29.0430    0.2200 C.3   201  WW4201     -0.0358
      7  C04      -46.6700  -29.2940    1.6420 C.3   201  WW4201      0.0018
      8  C06      -44.3050  -29.6610    1.7250 C.3   201  WW4201      0.0047
      9  C07      -45.4500  -29.2300    3.9500 C.3   201  WW4201      0.1875
     10  C09      -44.2720  -29.3070    5.8670 C.2   201  WW4201      0.1048
     11  C11      -46.4420  -29.0840    6.0560 C.ar  201  WW4201      0.1286
     12  C14      -47.9900  -28.9420    4.4250 C.ar  201  WW4201     -0.0355
     13  C16      -45.2060  -31.9640   -0.4900 C.ar  201  WW4201      0.0786
     14  C18      -45.8330  -34.0400    0.0910 C.ar  201  WW4201      0.0350
     15  C19      -46.8300  -33.8640   -0.8390 C.ar  201  WW4201     -0.0046
     16  N05      -45.4590  -29.2480    2.5230 N.3   201  WW4201     -0.2712
     17  N08      -44.2950  -29.3210    4.5580 N.2   201  WW4201     -0.2432
     18  N10      -45.2900  -29.2040    6.7000 N.pl3 201  WW4201     -0.1859
     19  N17      -44.9570  -33.0260    0.2600 N.ar  201  WW4201     -0.2523
     20  S20      -46.5380  -32.2990   -1.4450 S.2   201  WW4201     -0.0805
     21 H121      -47.7850  -28.9400    7.3770 H     201  WW4201      0.1666
     22 H131      -49.4690  -28.7910    5.8010 H     201  WW4201      0.0807
     23 H012      -43.5340  -30.9280   -0.4760 H     201  WW4201      0.0337
     24 H011      -44.5040  -30.3360   -1.5480 H     201  WW4201      0.0337
     25 H021      -44.2140  -28.7130   -0.0500 H     201  WW4201      0.0317
     26 H031      -46.6440  -29.5790   -0.4250 H     201  WW4201      0.0281
     27 H032      -46.2240  -28.0970   -0.0110 H     201  WW4201      0.0281
     28 H041      -47.0810  -30.1680    1.7040 H     201  WW4201      0.0427
     29 H042      -47.3030  -28.5970    1.8810 H     201  WW4201      0.0427
     30 H062      -44.1290  -30.5870    1.9090 H     201  WW4201      0.0430
     31 H061      -43.5430  -29.1020    1.9390 H     201  WW4201      0.0430
     32 H091      -43.4420  -29.3730    6.2550 H     201  WW4201      0.1015
     33 H141      -48.3960  -28.9150    3.5910 H     201  WW4201      0.0637
     34 H181      -45.7890  -34.8170    0.5570 H     201  WW4201      0.0835
     35 H191      -47.5060  -34.5040   -1.0690 H     201  WW4201      0.0709
@<TRIPOS>BOND
     1    24     4    1
     2    20    15   ar
     3    20    13   ar
     4    35    15    1
     5    15    14   ar
     6     4    13    1
     7     4    23    1
     8     4     5    1
     9    13    19   ar
    10    26     6    1
    11    25     5    1
    12    27     6    1
    13    14    19   ar
    14    14    34    1
    15     6     5    1
    16     6     7    1
    17     5     8    1
    18     7    28    1
    19     7    29    1
    20     7    16    1
    21     8    30    1
    22     8    31    1
    23     8    16    1
    24    16     9    1
    25    33    12    1
    26     9    17    1
    27     9     3    1
    28    12     3   ar
    29    12     2   ar
    30    17    10    2
    31     3    11   ar
    32     2    22    1
    33     2     1   ar
    34    10    32    1
    35    10    18    1
    36    11     1   ar
    37    11    18    1
    38     1    21    1
