AWP
  -OEChem-02242320013D

 39 40  0     0  0  0  0  0  0999 V2000
   -6.3180    0.5470   -0.6190 N   0  0  0  0  0  0  0  0  0  0  0  0
    2.1660   -0.6250    0.5160 N   0  0  0  0  0  0  0  0  0  0  0  0
   -4.5830   -1.0330   -0.5410 C   0  0  0  0  0  0  0  0  0  0  0  0
   -3.9120   -0.2610    0.3960 C   0  0  0  0  0  0  0  0  0  0  0  0
   -2.5860   -0.7060    0.9550 C   0  0  0  0  0  0  0  0  0  0  0  0
   -1.4550   -0.1600    0.0820 C   0  0  0  0  0  0  0  0  0  0  0  0
    0.9800   -0.2270    0.0160 C   0  0  0  0  0  0  0  0  0  0  0  0
    4.5090   -1.2430    0.1790 C   0  0  0  0  0  0  0  0  0  0  0  0
    5.1330    1.5710   -0.3440 C   0  0  0  0  0  0  0  0  0  0  0  0
   -4.4910    0.9300    0.8050 C   0  0  0  0  0  0  0  0  0  0  0  0
   -5.7090    1.3060    0.2700 C   0  0  0  0  0  0  0  0  0  0  0  0
   -5.7970   -0.5920   -1.0320 C   0  0  0  0  0  0  0  0  0  0  0  0
   -0.1650   -0.5920    0.6250 N   0  0  0  0  0  0  0  0  0  0  0  0
    0.9430    0.4620   -0.9860 O   0  0  0  0  0  0  0  0  0  0  0  0
    3.4110   -0.2280   -0.1470 C   0  0  0  0  0  0  0  0  0  0  0  0
    5.8090   -0.8280   -0.5130 C   0  0  0  0  0  0  0  0  0  0  0  0
    6.2310    0.5570   -0.0180 C   0  0  0  0  0  0  0  0  0  0  0  0
    3.8330    1.1570    0.3480 C   0  0  0  0  0  0  0  0  0  0  0  0
    2.1960   -1.1750    1.3150 H   0  0  0  0  0  0  0  0  0  0  0  0
   -4.1610   -1.9660   -0.8830 H   0  0  0  0  0  0  0  0  0  0  0  0
   -2.4750   -0.3290    1.9720 H   0  0  0  0  0  0  0  0  0  0  0  0
   -2.5430   -1.7960    0.9650 H   0  0  0  0  0  0  0  0  0  0  0  0
   -1.5660   -0.5370   -0.9350 H   0  0  0  0  0  0  0  0  0  0  0  0
   -1.4980    0.9300    0.0720 H   0  0  0  0  0  0  0  0  0  0  0  0
    4.6650   -1.2750    1.2580 H   0  0  0  0  0  0  0  0  0  0  0  0
    4.2080   -2.2290   -0.1730 H   0  0  0  0  0  0  0  0  0  0  0  0
    5.4340    2.5580    0.0090 H   0  0  0  0  0  0  0  0  0  0  0  0
    4.9770    1.6030   -1.4220 H   0  0  0  0  0  0  0  0  0  0  0  0
   -3.9970    1.5570    1.5330 H   0  0  0  0  0  0  0  0  0  0  0  0
   -6.1670    2.2330    0.5840 H   0  0  0  0  0  0  0  0  0  0  0  0
   -6.3260   -1.1870   -1.7620 H   0  0  0  0  0  0  0  0  0  0  0  0
   -0.1350   -1.1420    1.4240 H   0  0  0  0  0  0  0  0  0  0  0  0
    3.2550   -0.1960   -1.2250 H   0  0  0  0  0  0  0  0  0  0  0  0
    6.5910   -1.5510   -0.2800 H   0  0  0  0  0  0  0  0  0  0  0  0
    5.6520   -0.7960   -1.5910 H   0  0  0  0  0  0  0  0  0  0  0  0
    7.1570    0.8520   -0.5110 H   0  0  0  0  0  0  0  0  0  0  0  0
    6.3870    0.5250    1.0610 H   0  0  0  0  0  0  0  0  0  0  0  0
    3.9900    1.1250    1.4260 H   0  0  0  0  0  0  0  0  0  0  0  0
    3.0510    1.8800    0.1160 H   0  0  0  0  0  0  0  0  0  0  0  0
 10 11  2  0  0  0  0
  1 11  1  0  0  0  0
  4 10  1  0  0  0  0
  1 12  2  0  0  0  0
  7 14  2  0  0  0  0
  4  5  1  0  0  0  0
  3  4  2  0  0  0  0
  5  6  1  0  0  0  0
  3 12  1  0  0  0  0
  2  7  1  0  0  0  0
  7 13  1  0  0  0  0
  8 16  1  0  0  0  0
  8 15  1  0  0  0  0
  2 15  1  0  0  0  0
 16 17  1  0  0  0  0
  6 13  1  0  0  0  0
 15 18  1  0  0  0  0
  9 17  1  0  0  0  0
  9 18  1  0  0  0  0
  2 19  1  0  0  0  0
  3 20  1  0  0  0  0
  5 21  1  0  0  0  0
  5 22  1  0  0  0  0
  6 23  1  0  0  0  0
  6 24  1  0  0  0  0
  8 25  1  0  0  0  0
  8 26  1  0  0  0  0
  9 27  1  0  0  0  0
  9 28  1  0  0  0  0
 10 29  1  0  0  0  0
 11 30  1  0  0  0  0
 12 31  1  0  0  0  0
 13 32  1  0  0  0  0
 15 33  1  0  0  0  0
 16 34  1  0  0  0  0
 16 35  1  0  0  0  0
 17 36  1  0  0  0  0
 17 37  1  0  0  0  0
 18 38  1  0  0  0  0
 18 39  1  0  0  0  0
M  END
> <OPENEYE_ISO_SMILES>
c1cnccc1CCNC(=O)NC2CCCCC2

> <OPENEYE_INCHI>
InChI=1S/C14H21N3O/c18-14(17-13-4-2-1-3-5-13)16-11-8-12-6-9-15-10-7-12/h6-7,9-10,13H,1-5,8,11H2,(H2,16,17,18)

> <OPENEYE_INCHIKEY>
XUPGANVQJLTRNJ-UHFFFAOYSA-N

> <FORMULA>
C14H21N3O

$$$$
