@<TRIPOS>MOLECULE
/home/pku/3cl/gett_pdb/5RV3/5RV3_mol2/ligand/5RV3_MYI.pdb
 25 26 0 0 0
SMALL
GASTEIGER

@<TRIPOS>ATOM
      1  CAA      -48.8700  -28.9560   -0.1650 C.3   201  MYI201      0.0788
      2  OAB      -44.3240  -33.2610    2.5340 O.co2 201  MYI201     -0.8474
      3  OAC      -43.5010  -31.5080    3.4020 O.co2 201  MYI201     -0.3087
      4  CAD      -45.9300  -26.7570    0.0860 C.ar  201  MYI201     -0.0180
      5  CAE      -44.5620  -26.7720    0.2020 C.ar  201  MYI201     -0.0343
      6  CAF      -42.4670  -29.5580    0.7980 C.ar  201  MYI201      0.0063
      7  CAG      -46.0520  -29.0690    0.4240 C.ar  201  MYI201     -0.0105
      8  CAH      -43.9810  -31.6070    0.9720 C.3   201  MYI201      0.0232
      9  NAI      -42.6210  -28.2850    0.6040 N.ar  201  MYI201     -0.3604
     10  OAJ      -48.0980  -27.8010    0.0790 O.3   201  MYI201     -0.4951
     11  CAK      -43.9260  -32.1150    2.4000 C.2   201  MYI201      0.0915
     12  CAL      -46.7010  -27.8950    0.1910 C.ar  201  MYI201      0.1208
     13  CAM      -43.7040  -30.1420    0.7730 C.ar  201  MYI201     -0.0160
     14  CAN      -43.9120  -27.9790    0.4490 C.ar  201  MYI201      0.0470
     15  CAO      -44.6640  -29.1140    0.5320 C.ar  201  MYI201      0.0066
     16  HAA      -48.8040  -29.1460   -1.1120 H     201  MYI201      0.0660
     17 HAAA      -48.4240  -29.6560    0.2820 H     201  MYI201      0.0660
     18 HAAB      -49.7940  -28.7460    0.0090 H     201  MYI201      0.0660
     19  HAD      -46.3550  -25.9430   -0.0630 H     201  MYI201      0.0655
     20  HAE      -44.0760  -25.9820    0.1320 H     201  MYI201      0.0639
     21  HAF      -41.6580  -29.9970    0.9270 H     201  MYI201      0.0810
     22  HAG      -46.5330  -29.8600    0.5000 H     201  MYI201      0.0661
     23  HAH      -43.3350  -32.1080    0.4500 H     201  MYI201      0.0382
     24 HAHA      -44.8650  -31.7960    0.6200 H     201  MYI201      0.0382
     25 HNAI      -41.9770  -27.7170    0.5640 H     201  MYI201      0.1653
@<TRIPOS>UNITY_ATOM_ATTR
2 1
charge -1
@<TRIPOS>BOND
     1    16     1    1
     2     1    18    1
     3     1    10    1
     4     1    17    1
     5    19     4    1
     6    10    12    1
     7     4    12   ar
     8     4     5   ar
     9    20     5    1
    10    12     7   ar
    11     5    14   ar
    12     7    22    1
    13     7    15   ar
    14    14    15   ar
    15    14     9   ar
    16    23     8    1
    17    15    13   ar
    18    25     9    1
    19     9     6   ar
    20    24     8    1
    21    13     6   ar
    22    13     8    1
    23     6    21    1
    24     8    11    1
    25    11     2   ar
    26    11     3   ar
