QYO
  -OEChem-02242320033D

 36 39  0     1  0  0  0  0  0999 V2000
   -1.5940   -2.1420    0.0440 C   0  0  0  0  0  0  0  0  0  0  0  0
   -1.5860    1.5380   -0.1270 C   0  0  0  0  0  0  0  0  0  0  0  0
   -2.6880    2.3620   -0.0690 C   0  0  0  0  0  0  0  0  0  0  0  0
   -3.9600    1.8210    0.0670 C   0  0  0  0  0  0  0  0  0  0  0  0
   -4.1350    0.4540    0.1450 C   0  0  0  0  0  0  0  0  0  0  0  0
   -3.0330   -0.3930    0.0880 C   0  0  0  0  0  0  0  0  0  0  0  0
    0.3330   -3.4000   -0.0690 C   0  0  0  0  0  0  0  0  0  0  0  0
    4.8050    1.3410   -0.3230 C   0  0  1  0  0  0  0  0  0  0  0  0
    4.9370    0.2180    0.7260 C   0  0  0  0  0  0  0  0  0  0  0  0
    3.4780   -0.2280    0.9910 C   0  0  0  0  0  0  0  0  0  0  0  0
    2.8350   -0.1470   -0.4150 C   0  0  2  0  0  0  0  0  0  0  0  0
    0.5740   -1.1100   -0.1920 C   0  0  0  0  0  0  0  0  0  0  0  0
   -0.8150   -0.9810   -0.0770 C   0  0  0  0  0  0  0  0  0  0  0  0
   -1.7480    0.1560   -0.0490 C   0  0  0  0  0  0  0  0  0  0  0  0
    3.4680    1.1090   -1.0490 C   0  0  0  0  0  0  0  0  0  0  0  0
   -5.0340    2.6380    0.1230 F   0  0  0  0  0  0  0  0  0  0  0  0
    1.3820    0.0070   -0.3070 N   0  0  0  0  0  0  0  0  0  0  0  0
   -2.9130   -1.7720    0.1410 N   0  0  0  0  0  0  0  0  0  0  0  0
   -0.9770   -3.3230    0.0400 N   0  0  0  0  0  0  0  0  0  0  0  0
    1.1000   -2.3320   -0.1790 N   0  0  0  0  0  0  0  0  0  0  0  0
    4.7970    2.6160    0.3220 O   0  0  0  0  0  0  0  0  0  0  0  0
   -0.5980    1.9620   -0.2320 H   0  0  0  0  0  0  0  0  0  0  0  0
   -2.5630    3.4330   -0.1300 H   0  0  0  0  0  0  0  0  0  0  0  0
   -5.1270    0.0420    0.2510 H   0  0  0  0  0  0  0  0  0  0  0  0
    0.7970   -4.3750   -0.0690 H   0  0  0  0  0  0  0  0  0  0  0  0
    5.6300    1.2880   -1.0340 H   0  0  0  0  0  0  0  0  0  0  0  0
    5.5230   -0.6100    0.3270 H   0  0  0  0  0  0  0  0  0  0  0  0
    5.3930    0.6010    1.6390 H   0  0  0  0  0  0  0  0  0  0  0  0
    3.4490   -1.2490    1.3710 H   0  0  0  0  0  0  0  0  0  0  0  0
    2.9850    0.4540    1.6840 H   0  0  0  0  0  0  0  0  0  0  0  0
    3.0800   -1.0340   -0.9990 H   0  0  0  0  0  0  0  0  0  0  0  0
    2.8130    1.9690   -0.9090 H   0  0  0  0  0  0  0  0  0  0  0  0
    3.6440    0.9420   -2.1120 H   0  0  0  0  0  0  0  0  0  0  0  0
    0.9860    0.8930   -0.3160 H   0  0  0  0  0  0  0  0  0  0  0  0
   -3.6550   -2.3890    0.2350 H   0  0  0  0  0  0  0  0  0  0  0  0
    5.6130    2.8210    0.7980 H   0  0  0  0  0  0  0  0  0  0  0  0
  8 21  1  0  0  0  0
  8  9  1  0  0  0  0
  9 10  1  0  0  0  0
 10 11  1  0  0  0  0
 12 17  1  0  0  0  0
 12 13  1  0  0  0  0
 13 14  1  0  0  0  0
  6 14  2  0  0  0  0
  4  5  2  0  0  0  0
  2  3  2  0  0  0  0
  3  4  1  0  0  0  0
  4 16  1  0  0  0  0
  5  6  1  0  0  0  0
  6 18  1  0  0  0  0
  1 18  1  0  0  0  0
  1 19  1  0  0  0  0
  7 19  2  0  0  0  0
  7 20  1  0  0  0  0
 11 17  1  0  0  0  0
 11 15  1  0  0  0  0
  8 15  1  0  0  0  0
 12 20  2  0  0  0  0
  1 13  2  0  0  0  0
  2 14  1  0  0  0  0
  2 22  1  0  0  0  0
  3 23  1  0  0  0  0
  5 24  1  0  0  0  0
  7 25  1  0  0  0  0
  8 26  1  0  0  0  0
  9 27  1  0  0  0  0
  9 28  1  0  0  0  0
 10 29  1  0  0  0  0
 10 30  1  0  0  0  0
 11 31  1  0  0  0  0
 15 32  1  0  0  0  0
 15 33  1  0  0  0  0
 17 34  1  0  0  0  0
 18 35  1  0  0  0  0
 21 36  1  0  0  0  0
M  END
> <OPENEYE_ISO_SMILES>
c1cc2c(cc1F)[nH]c3c2c(ncn3)N[C@@H]4CC[C@@H](C4)O

> <OPENEYE_INCHI>
InChI=1S/C15H15FN4O/c16-8-1-4-11-12(5-8)20-15-13(11)14(17-7-18-15)19-9-2-3-10(21)6-9/h1,4-5,7,9-10,21H,2-3,6H2,(H2,17,18,19,20)/t9-,10+/m1/s1

> <OPENEYE_INCHIKEY>
JNVGUGBOYHSUKL-ZJUUUORDSA-N

> <FORMULA>
C15H15FN4O

$$$$
