QYU
  -OEChem-02242320033D

 36 39  0     1  0  0  0  0  0999 V2000
   -4.8400   -1.1170    0.2230 C   0  0  2  0  0  0  0  0  0  0  0  0
   -4.4540   -0.7460   -1.2300 C   0  0  0  0  0  0  0  0  0  0  0  0
   -3.4430    0.4080   -1.0700 C   0  0  0  0  0  0  0  0  0  0  0  0
   -2.8350    0.2680    0.3370 C   0  0  1  0  0  0  0  0  0  0  0  0
   -0.5410    1.1600    0.1670 C   0  0  0  0  0  0  0  0  0  0  0  0
    0.8450    0.9880    0.0800 C   0  0  0  0  0  0  0  0  0  0  0  0
    1.7410   -0.1790    0.0420 C   0  0  0  0  0  0  0  0  0  0  0  0
    3.0460    0.3300   -0.0500 C   0  0  0  0  0  0  0  0  0  0  0  0
    4.1190   -0.5520   -0.1050 C   0  0  0  0  0  0  0  0  0  0  0  0
    3.8970   -1.9140   -0.0680 C   0  0  0  0  0  0  0  0  0  0  0  0
    2.6050   -2.4150    0.0240 C   0  0  0  0  0  0  0  0  0  0  0  0
    1.5300   -1.5550    0.0790 C   0  0  0  0  0  0  0  0  0  0  0  0
    1.6650    2.1250    0.0080 C   0  0  0  0  0  0  0  0  0  0  0  0
   -0.2220    3.4430    0.1090 C   0  0  0  0  0  0  0  0  0  0  0  0
   -3.4990   -0.9660    0.9820 C   0  0  0  0  0  0  0  0  0  0  0  0
    4.9440   -2.7660   -0.1220 F   0  0  0  0  0  0  0  0  0  0  0  0
   -1.3870    0.0680    0.2400 N   0  0  0  0  0  0  0  0  0  0  0  0
    2.9730    1.7130   -0.0690 N   0  0  0  0  0  0  0  0  0  0  0  0
    1.0860    3.3260    0.0260 N   0  0  0  0  0  0  0  0  0  0  0  0
   -1.0260    2.4000    0.1820 N   0  0  0  0  0  0  0  0  0  0  0  0
   -5.3130   -2.4630    0.2930 O   0  0  0  0  0  0  0  0  0  0  0  0
   -5.5860   -0.4260    0.6160 H   0  0  0  0  0  0  0  0  0  0  0  0
   -3.9880   -1.5950   -1.7300 H   0  0  0  0  0  0  0  0  0  0  0  0
   -5.3310   -0.4120   -1.7850 H   0  0  0  0  0  0  0  0  0  0  0  0
   -2.6600    0.3260   -1.8250 H   0  0  0  0  0  0  0  0  0  0  0  0
   -3.9520    1.3670   -1.1640 H   0  0  0  0  0  0  0  0  0  0  0  0
   -3.0500    1.1590    0.9270 H   0  0  0  0  0  0  0  0  0  0  0  0
    5.1270   -0.1710   -0.1760 H   0  0  0  0  0  0  0  0  0  0  0  0
    2.4430   -3.4830    0.0520 H   0  0  0  0  0  0  0  0  0  0  0  0
    0.5260   -1.9480    0.1510 H   0  0  0  0  0  0  0  0  0  0  0  0
   -0.6540    4.4330    0.1200 H   0  0  0  0  0  0  0  0  0  0  0  0
   -3.6780   -0.7910    2.0430 H   0  0  0  0  0  0  0  0  0  0  0  0
   -2.8780   -1.8510    0.8400 H   0  0  0  0  0  0  0  0  0  0  0  0
   -1.0210   -0.8300    0.2280 H   0  0  0  0  0  0  0  0  0  0  0  0
    3.7370    2.3070   -0.1280 H   0  0  0  0  0  0  0  0  0  0  0  0
   -6.1510   -2.6110   -0.1670 H   0  0  0  0  0  0  0  0  0  0  0  0
  1 21  1  0  0  0  0
  1  2  1  0  0  0  0
  2  3  1  0  0  0  0
  3  4  1  0  0  0  0
  5 17  1  0  0  0  0
  5  6  2  0  0  0  0
  6  7  1  0  0  0  0
  7  8  2  0  0  0  0
  9 10  2  0  0  0  0
 11 12  2  0  0  0  0
 10 11  1  0  0  0  0
 10 16  1  0  0  0  0
  8  9  1  0  0  0  0
  8 18  1  0  0  0  0
 13 18  1  0  0  0  0
 13 19  2  0  0  0  0
 14 19  1  0  0  0  0
 14 20  2  0  0  0  0
  4 17  1  0  0  0  0
  4 15  1  0  0  0  0
  1 15  1  0  0  0  0
  5 20  1  0  0  0  0
  6 13  1  0  0  0  0
  7 12  1  0  0  0  0
  1 22  1  0  0  0  0
  2 23  1  0  0  0  0
  2 24  1  0  0  0  0
  3 25  1  0  0  0  0
  3 26  1  0  0  0  0
  4 27  1  0  0  0  0
  9 28  1  0  0  0  0
 11 29  1  0  0  0  0
 12 30  1  0  0  0  0
 14 31  1  0  0  0  0
 15 32  1  0  0  0  0
 15 33  1  0  0  0  0
 17 34  1  0  0  0  0
 18 35  1  0  0  0  0
 21 36  1  0  0  0  0
M  END
> <OPENEYE_ISO_SMILES>
c1cc2c(cc1F)[nH]c3c2c(ncn3)N[C@H]4CC[C@H](C4)O

> <OPENEYE_INCHI>
InChI=1S/C15H15FN4O/c16-8-1-4-11-12(5-8)20-15-13(11)14(17-7-18-15)19-9-2-3-10(21)6-9/h1,4-5,7,9-10,21H,2-3,6H2,(H2,17,18,19,20)/t9-,10+/m0/s1

> <OPENEYE_INCHIKEY>
JNVGUGBOYHSUKL-VHSXEESVSA-N

> <FORMULA>
C15H15FN4O

$$$$
