PHB
  -OEChem-02242320033D

 16 16  0     0  0  0  0  0  0999 V2000
    2.1090   -0.0650    0.0060 C   0  0  0  0  0  0  0  0  0  0  0  0
    2.6940   -1.1290    0.0100 O   0  0  0  0  0  0  0  0  0  0  0  0
    2.8060    1.0880    0.0040 O   0  0  0  0  0  0  0  0  0  0  0  0
    0.6340   -0.0340   -0.0020 C   0  0  0  0  0  0  0  0  0  0  0  0
   -0.0910   -1.2290   -0.0060 C   0  0  0  0  0  0  0  0  0  0  0  0
   -1.4680   -1.1970   -0.0140 C   0  0  0  0  0  0  0  0  0  0  0  0
   -2.1360    0.0220   -0.0190 C   0  0  0  0  0  0  0  0  0  0  0  0
   -1.4180    1.2130   -0.0150 C   0  0  0  0  0  0  0  0  0  0  0  0
   -0.0420    1.1890   -0.0010 C   0  0  0  0  0  0  0  0  0  0  0  0
   -3.4930    0.0500   -0.0270 O   0  0  0  0  0  0  0  0  0  0  0  0
    3.7710    1.0180    0.0060 H   0  0  0  0  0  0  0  0  0  0  0  0
    0.4270   -2.1770   -0.0030 H   0  0  0  0  0  0  0  0  0  0  0  0
   -2.0290   -2.1190   -0.0170 H   0  0  0  0  0  0  0  0  0  0  0  0
   -1.9410    2.1580   -0.0200 H   0  0  0  0  0  0  0  0  0  0  0  0
    0.5150    2.1150    0.0070 H   0  0  0  0  0  0  0  0  0  0  0  0
   -3.8910    0.0590    0.8540 H   0  0  0  0  0  0  0  0  0  0  0  0
  1  2  2  0  0  0  0
  1  3  1  0  0  0  0
  1  4  1  0  0  0  0
  3 11  1  0  0  0  0
  4  5  1  0  0  0  0
  4  9  2  0  0  0  0
  5  6  2  0  0  0  0
  5 12  1  0  0  0  0
  6  7  1  0  0  0  0
  6 13  1  0  0  0  0
  7  8  2  0  0  0  0
  7 10  1  0  0  0  0
  8  9  1  0  0  0  0
  8 14  1  0  0  0  0
  9 15  1  0  0  0  0
 10 16  1  0  0  0  0
M  END
> <OPENEYE_ISO_SMILES>
c1cc(ccc1C(=O)O)O

> <OPENEYE_INCHI>
InChI=1S/C7H6O3/c8-6-3-1-5(2-4-6)7(9)10/h1-4,8H,(H,9,10)

> <OPENEYE_INCHIKEY>
FJKROLUGYXJWQN-UHFFFAOYSA-N

> <FORMULA>
C7H6O3

$$$$
