SV6
  -OEChem-02242320043D

104108  0     1  0  0  0  0  0999 V2000
    7.9090   -0.2150    0.7600 C   0  0  0  0  0  0  0  0  0  0  0  0
    8.9970   -2.2310    0.8320 C   0  0  0  0  0  0  0  0  0  0  0  0
   10.1940   -1.5740    1.0780 C   0  0  0  0  0  0  0  0  0  0  0  0
    6.6600    0.5630    0.5880 C   0  0  0  0  0  0  0  0  0  0  0  0
    9.1120    0.4420    1.0120 C   0  0  0  0  0  0  0  0  0  0  0  0
    6.6830    1.7750    0.6670 O   0  0  0  0  0  0  0  0  0  0  0  0
    7.8840   -1.5430    0.6790 N   0  0  0  0  0  0  0  0  0  0  0  0
   10.2230   -0.2560    1.1650 N   0  0  0  0  0  0  0  0  0  0  0  0
    5.4970   -0.0740    0.3440 N   0  0  0  0  0  0  0  0  0  0  0  0
    4.2620    0.6950    0.1740 C   0  0  2  0  0  0  0  0  0  0  0  0
    3.0790   -0.1710    0.5230 C   0  0  0  0  0  0  0  0  0  0  0  0
    3.2510   -1.3180    0.8790 O   0  0  0  0  0  0  0  0  0  0  0  0
    4.1450    1.1570   -1.2800 C   0  0  0  0  0  0  0  0  0  0  0  0
    4.1160   -0.0640   -2.2020 C   0  0  0  0  0  0  0  0  0  0  0  0
    3.9990    0.3980   -3.6560 C   0  0  0  0  0  0  0  0  0  0  0  0
    5.2000    1.2770   -4.0100 C   0  0  0  0  0  0  0  0  0  0  0  0
    5.2280    2.4980   -3.0880 C   0  0  0  0  0  0  0  0  0  0  0  0
    5.3460    2.0360   -1.6340 C   0  0  0  0  0  0  0  0  0  0  0  0
    1.8300    0.3290    0.4400 N   0  0  0  0  0  0  0  0  0  0  0  0
    0.6800   -0.5130    0.7790 C   0  0  1  0  0  0  0  0  0  0  0  0
    0.4410   -0.4650    2.2900 C   0  0  0  0  0  0  0  0  0  0  0  0
    0.2610    0.9890    2.7320 C   0  0  0  0  0  0  0  0  0  0  0  0
   -0.8190   -1.2620    2.6320 C   0  0  0  0  0  0  0  0  0  0  0  0
    1.6430   -1.0730    3.0160 C   0  0  0  0  0  0  0  0  0  0  0  0
   -0.5440   -0.0050    0.0610 C   0  0  0  0  0  0  0  0  0  0  0  0
   -0.6980    1.1860   -0.1060 O   0  0  0  0  0  0  0  0  0  0  0  0
   -3.5620    0.3130   -0.0450 C   0  0  0  0  0  0  0  0  0  0  0  0
   -1.4660   -0.8750   -0.3960 N   0  0  0  0  0  0  0  0  0  0  0  0
   -3.2920    0.3050    1.1380 O   0  0  0  0  0  0  0  0  0  0  0  0
   -2.7520   -0.5150   -1.0080 C   0  0  1  0  0  0  0  0  0  0  0  0
   -3.5000   -1.8230   -1.3310 C   0  0  2  0  0  0  0  0  0  0  0  0
   -2.8030   -2.8670   -0.4040 C   0  0  2  0  0  0  0  0  0  0  0  0
   -3.0930   -2.2830   -2.7490 C   0  0  0  0  0  0  0  0  0  0  0  0
   -3.0570   -3.8210   -2.6720 C   0  0  0  0  0  0  0  0  0  0  0  0
   -1.3480   -2.3430   -0.3700 C   0  0  0  0  0  0  0  0  0  0  0  0
   -2.8470   -4.1840   -1.1940 C   0  0  0  0  0  0  0  0  0  0  0  0
   -7.7590   -0.0090    0.6940 N   0  0  0  0  0  0  0  0  0  0  0  0
   -4.5880    1.0620   -0.4960 N   0  0  0  0  0  0  0  0  0  0  0  0
   -5.3760    1.8660    0.4410 C   0  0  2  0  0  0  0  0  0  0  0  0
   -6.7730    2.1010   -0.1380 C   0  0  2  0  0  0  0  0  0  0  0  0
   -4.6840    3.2120    0.6650 C   0  0  0  0  0  0  0  0  0  0  0  0
   -3.3390    2.9850    1.3580 C   0  0  0  0  0  0  0  0  0  0  0  0
   -2.6470    4.3310    1.5820 C   0  0  0  0  0  0  0  0  0  0  0  0
   -7.4540    0.7750   -0.3590 C   0  0  0  0  0  0  0  0  0  0  0  0
   -8.4220   -1.2980    0.4790 C   0  0  0  0  0  0  0  0  0  0  0  0
   -8.2320   -2.3760    1.5480 C   0  0  0  0  0  0  0  0  0  0  0  0
   -9.5780   -1.6610    1.4130 C   0  0  0  0  0  0  0  0  0  0  0  0
   -6.6620    2.7930   -1.3840 O   0  0  0  0  0  0  0  0  0  0  0  0
   -7.7290    0.4140   -1.4840 O   0  0  0  0  0  0  0  0  0  0  0  0
    9.1360    1.5190    1.0830 H   0  0  0  0  0  0  0  0  0  0  0  0
    8.9770   -3.3090    0.7660 H   0  0  0  0  0  0  0  0  0  0  0  0
   11.1040   -2.1420    1.2030 H   0  0  0  0  0  0  0  0  0  0  0  0
    5.4780   -1.0420    0.2810 H   0  0  0  0  0  0  0  0  0  0  0  0
    4.2820    1.5640    0.8310 H   0  0  0  0  0  0  0  0  0  0  0  0
    3.2260    1.7290   -1.4060 H   0  0  0  0  0  0  0  0  0  0  0  0
    5.0350   -0.6360   -2.0760 H   0  0  0  0  0  0  0  0  0  0  0  0
    3.2610   -0.6900   -1.9500 H   0  0  0  0  0  0  0  0  0  0  0  0
    3.9790   -0.4710   -4.3130 H   0  0  0  0  0  0  0  0  0  0  0  0
    3.0800    0.9700   -3.7820 H   0  0  0  0  0  0  0  0  0  0  0  0
    6.1190    0.7050   -3.8840 H   0  0  0  0  0  0  0  0  0  0  0  0
    5.1160    1.6060   -5.0460 H   0  0  0  0  0  0  0  0  0  0  0  0
    6.0840    3.1240   -3.3410 H   0  0  0  0  0  0  0  0  0  0  0  0
    4.3090    3.0700   -3.2140 H   0  0  0  0  0  0  0  0  0  0  0  0
    5.3660    2.9050   -0.9770 H   0  0  0  0  0  0  0  0  0  0  0  0
    6.2650    1.4640   -1.5080 H   0  0  0  0  0  0  0  0  0  0  0  0
    1.6930    1.2460    0.1560 H   0  0  0  0  0  0  0  0  0  0  0  0
    0.8800   -1.5400    0.4750 H   0  0  0  0  0  0  0  0  0  0  0  0
   -0.5950    1.4220    2.2150 H   0  0  0  0  0  0  0  0  0  0  0  0
    0.0900    1.0230    3.8080 H   0  0  0  0  0  0  0  0  0  0  0  0
    1.1580    1.5570    2.4880 H   0  0  0  0  0  0  0  0  0  0  0  0
   -0.6600   -2.3140    2.3940 H   0  0  0  0  0  0  0  0  0  0  0  0
   -1.0360   -1.1600    3.6950 H   0  0  0  0  0  0  0  0  0  0  0  0
   -1.6590   -0.8810    2.0520 H   0  0  0  0  0  0  0  0  0  0  0  0
    2.5400   -0.5050    2.7720 H   0  0  0  0  0  0  0  0  0  0  0  0
    1.4720   -1.0390    4.0920 H   0  0  0  0  0  0  0  0  0  0  0  0
    1.7710   -2.1090    2.7010 H   0  0  0  0  0  0  0  0  0  0  0  0
   -2.5790    0.0490   -1.9250 H   0  0  0  0  0  0  0  0  0  0  0  0
   -4.5780   -1.7490   -1.1930 H   0  0  0  0  0  0  0  0  0  0  0  0
   -3.2660   -2.9450    0.5800 H   0  0  0  0  0  0  0  0  0  0  0  0
   -3.8340   -1.9570   -3.4800 H   0  0  0  0  0  0  0  0  0  0  0  0
   -2.1090   -1.8910   -3.0070 H   0  0  0  0  0  0  0  0  0  0  0  0
   -4.0000   -4.2350   -3.0280 H   0  0  0  0  0  0  0  0  0  0  0  0
   -2.2320   -4.2050   -3.2720 H   0  0  0  0  0  0  0  0  0  0  0  0
   -0.7970   -2.6930   -1.2430 H   0  0  0  0  0  0  0  0  0  0  0  0
   -0.8520   -2.6650    0.5450 H   0  0  0  0  0  0  0  0  0  0  0  0
   -1.9060   -4.7210   -1.0730 H   0  0  0  0  0  0  0  0  0  0  0  0
   -3.6750   -4.8000   -0.8420 H   0  0  0  0  0  0  0  0  0  0  0  0
   -7.5400    0.2800    1.5940 H   0  0  0  0  0  0  0  0  0  0  0  0
   -4.8040    1.0680   -1.4420 H   0  0  0  0  0  0  0  0  0  0  0  0
   -5.4600    1.3390    1.3910 H   0  0  0  0  0  0  0  0  0  0  0  0
   -7.3590    2.7000    0.5590 H   0  0  0  0  0  0  0  0  0  0  0  0
   -4.5190    3.7010   -0.2960 H   0  0  0  0  0  0  0  0  0  0  0  0
   -5.3130    3.8450    1.2910 H   0  0  0  0  0  0  0  0  0  0  0  0
   -3.5030    2.4970    2.3190 H   0  0  0  0  0  0  0  0  0  0  0  0
   -2.7100    2.3530    0.7320 H   0  0  0  0  0  0  0  0  0  0  0  0
   -3.2760    4.9640    2.2080 H   0  0  0  0  0  0  0  0  0  0  0  0
   -1.6890    4.1690    2.0760 H   0  0  0  0  0  0  0  0  0  0  0  0
   -2.4820    4.8190    0.6210 H   0  0  0  0  0  0  0  0  0  0  0  0
   -8.4910   -1.6240   -0.5580 H   0  0  0  0  0  0  0  0  0  0  0  0
   -8.1760   -3.4120    1.2130 H   0  0  0  0  0  0  0  0  0  0  0  0
   -7.6130   -2.1270    2.4100 H   0  0  0  0  0  0  0  0  0  0  0  0
   -9.8460   -0.9420    2.1860 H   0  0  0  0  0  0  0  0  0  0  0  0
  -10.4080   -2.2270    0.9890 H   0  0  0  0  0  0  0  0  0  0  0  0
   -6.1520    2.3180   -2.0540 H   0  0  0  0  0  0  0  0  0  0  0  0
 27 29  2  0  0  0  0
 27 30  1  0  0  0  0
 27 38  1  0  0  0  0
 28 35  1  0  0  0  0
 25 28  1  0  0  0  0
 28 30  1  0  0  0  0
 30 31  1  0  0  0  0
 30 77  1  0  0  0  0
 31 32  1  0  0  0  0
 31 33  1  0  0  0  0
 31 78  1  0  0  0  0
 32 35  1  0  0  0  0
 32 36  1  0  0  0  0
 32 79  1  0  0  0  0
 37 45  1  0  0  0  0
 37 44  1  0  0  0  0
 37 88  1  0  0  0  0
 19 20  1  0  0  0  0
 11 19  1  0  0  0  0
 19 66  1  0  0  0  0
  4  9  1  0  0  0  0
  9 10  1  0  0  0  0
  9 53  1  0  0  0  0
 38 39  1  0  0  0  0
 38 89  1  0  0  0  0
  2  7  2  0  0  0  0
  1  7  1  0  0  0  0
  3  8  2  0  0  0  0
  5  8  1  0  0  0  0
 39 40  1  0  0  0  0
 39 41  1  0  0  0  0
 39 90  1  0  0  0  0
 40 44  1  0  0  0  0
 40 48  1  0  0  0  0
 40 91  1  0  0  0  0
 41 42  1  0  0  0  0
 41 92  1  0  0  0  0
 41 93  1  0  0  0  0
 42 43  1  0  0  0  0
 42 94  1  0  0  0  0
 42 95  1  0  0  0  0
 43 96  1  0  0  0  0
 43 97  1  0  0  0  0
 43 98  1  0  0  0  0
 44 49  2  0  0  0  0
 45 47  1  0  0  0  0
 45 46  1  0  0  0  0
 45 99  1  0  0  0  0
 46 47  1  0  0  0  0
 46100  1  0  0  0  0
 46101  1  0  0  0  0
 47102  1  0  0  0  0
 47103  1  0  0  0  0
 20 25  1  0  0  0  0
 25 26  2  0  0  0  0
 20 21  1  0  0  0  0
 20 67  1  0  0  0  0
 11 12  2  0  0  0  0
 10 11  1  0  0  0  0
 10 13  1  0  0  0  0
 10 54  1  0  0  0  0
 21 24  1  0  0  0  0
 21 23  1  0  0  0  0
 21 22  1  0  0  0  0
 24 74  1  0  0  0  0
 24 75  1  0  0  0  0
 24 76  1  0  0  0  0
  1  4  1  0  0  0  0
  4  6  2  0  0  0  0
 22 68  1  0  0  0  0
 22 69  1  0  0  0  0
 22 70  1  0  0  0  0
 23 71  1  0  0  0  0
 23 72  1  0  0  0  0
 23 73  1  0  0  0  0
 33 34  1  0  0  0  0
 33 80  1  0  0  0  0
 33 81  1  0  0  0  0
 34 36  1  0  0  0  0
 34 82  1  0  0  0  0
 34 83  1  0  0  0  0
 13 18  1  0  0  0  0
 13 14  1  0  0  0  0
 13 55  1  0  0  0  0
 14 15  1  0  0  0  0
 14 56  1  0  0  0  0
 14 57  1  0  0  0  0
 15 16  1  0  0  0  0
 15 58  1  0  0  0  0
 15 59  1  0  0  0  0
 16 17  1  0  0  0  0
 16 60  1  0  0  0  0
 16 61  1  0  0  0  0
 17 18  1  0  0  0  0
 17 62  1  0  0  0  0
 17 63  1  0  0  0  0
 18 64  1  0  0  0  0
 18 65  1  0  0  0  0
  1  5  2  0  0  0  0
  2  3  1  0  0  0  0
  2 51  1  0  0  0  0
  3 52  1  0  0  0  0
  5 50  1  0  0  0  0
 48104  1  0  0  0  0
 35 84  1  0  0  0  0
 35 85  1  0  0  0  0
 36 86  1  0  0  0  0
 36 87  1  0  0  0  0
M  END
> <OPENEYE_ISO_SMILES>
CCC[C@@H]([C@H](C(=O)NC1CC1)O)NC(=O)[C@@H]2[C@H]3CCC[C@H]3CN2C(=O)[C@H](C(C)(C)C)NC(=O)[C@H](C4CCCCC4)NC(=O)c5cnccn5

> <OPENEYE_INCHI>
InChI=1S/C36H55N7O6/c1-5-10-25(29(44)34(48)39-23-15-16-23)40-33(47)28-24-14-9-13-22(24)20-43(28)35(49)30(36(2,3)4)42-32(46)27(21-11-7-6-8-12-21)41-31(45)26-19-37-17-18-38-26/h17-19,21-25,27-30,44H,5-16,20H2,1-4H3,(H,39,48)(H,40,47)(H,41,45)(H,42,46)/t22-,24-,25-,27-,28-,29+,30+/m0/s1

> <OPENEYE_INCHIKEY>
FTZGWEAUHOMNIG-FJRGXGLZSA-N

> <FORMULA>
C36H55N7O6

$$$$
