@<TRIPOS>MOLECULE
/home/pku/3cl/gett_pdb/6VH1/6VH1_mol2/ligand/6VH1_QZ7.pdb
 30 31 0 0 0
SMALL
GASTEIGER

@<TRIPOS>ATOM
      1  C02       60.8510  -16.8950   -9.4090 C.3   401  QZ7401      0.2642
      2  C04       60.5160  -15.4290   -9.8980 C.3   401  QZ7401      0.0703
      3  C05       61.6270  -14.4450   -9.7080 C.3   401  QZ7401      0.0493
      4  C06       62.3600  -14.4760   -8.3130 C.3   401  QZ7401      0.1709
      5  C08       63.0540  -12.2880   -8.4090 C.2   401  QZ7401      0.4214
      6  C10       63.8680  -10.1490   -8.6980 C.3   401  QZ7401      0.1761
      7  C11       65.2420   -9.5570   -8.7700 C.3   401  QZ7401      0.0312
      8  C12       66.1600   -9.9150   -7.5780 C.3   401  QZ7401      0.0022
      9  C13       65.6290   -9.3270   -6.2550 C.3   401  QZ7401      0.0001
     10  C14       67.5450   -9.3660   -7.7660 C.3   401  QZ7401      0.0001
     11  C15       62.9580   -9.4650   -9.7080 C.2   401  QZ7401      0.2614
     12  C17       61.1210   -7.9050  -10.1470 C.3   401  QZ7401      0.1287
     13  C18       59.6840   -8.2040   -9.6350 C.3   401  QZ7401      0.0335
     14  C19       59.2940   -9.6680   -9.8200 C.3   401  QZ7401      0.0818
     15  C20       57.9170   -9.9430   -9.3380 C.2   401  QZ7401      0.2410
     16  C22       58.1040  -11.1100  -11.3510 C.3   401  QZ7401      0.1156
     17  C23       59.2370  -10.1280  -11.2810 C.3   401  QZ7401      0.0326
     18  C25       61.4740   -6.3930  -10.1960 C.3   401  QZ7401      0.2036
     19  C29       62.7460  -15.8680   -7.8910 C.3   401  QZ7401      0.0493
     20  C30       61.7090  -16.9740   -8.0690 C.3   401  QZ7401      0.0703
     21  F01       59.6900  -17.6010   -9.2280 F     401  QZ7401     -0.2043
     22  F03       61.4650  -17.5680  -10.4390 F     401  QZ7401     -0.2043
     23  N09       63.8830  -11.4970   -9.0270 N.am  401  QZ7401     -0.1611
     24  N16       62.0470   -8.5830   -9.2560 N.am  401  QZ7401     -0.2030
     25  N21       57.2650  -10.7780  -10.2220 N.am  401  QZ7401     -0.2054
     26  O07       63.4020  -13.5960   -8.4390 O.3   401  QZ7401     -0.4373
     27  O24       57.4020   -9.5560   -8.3070 O.2   401  QZ7401     -0.2734
     28  O26       60.4500   -5.8020  -11.0370 O.3   401  QZ7401     -0.2185
     29  O27       63.0180   -9.7410  -10.9000 O.2   401  QZ7401     -0.2715
     30  O28       62.0570  -11.8940   -7.8220 O.2   401  QZ7401     -0.2246
@<TRIPOS>BOND
     1    16    17    1
     2    16    25    1
     3    17    14    1
     4    28    18    1
     5    29    11    2
     6    22     1    1
     7    25    15   am
     8    18    12    1
     9    12    13    1
    10    12    24    1
    11     2     3    1
    12     2     1    1
    13    14    13    1
    14    14    15    1
    15    11    24   am
    16    11     6    1
    17     3     4    1
    18     1    21    1
    19     1    20    1
    20    15    27    2
    21    23     6    1
    22    23     5   am
    23     7     6    1
    24     7     8    1
    25    26     5    1
    26    26     4    1
    27     5    30    2
    28     4    19    1
    29    20    19    1
    30    10     8    1
    31     8     9    1
