9JT
  -OEChem-02242320013D

 27 28  0     0  0  0  0  0  0999 V2000
   -2.6810    0.5930    0.0160 C   0  0  0  0  0  0  0  0  0  0  0  0
   -3.7540    1.1990   -0.6260 C   0  0  0  0  0  0  0  0  0  0  0  0
   -5.0040    0.6130   -0.5820 C   0  0  0  0  0  0  0  0  0  0  0  0
   -5.1880   -0.5750    0.1000 C   0  0  0  0  0  0  0  0  0  0  0  0
   -4.1220   -1.1810    0.7400 C   0  0  0  0  0  0  0  0  0  0  0  0
   -0.4160   -0.7970   -0.1170 O   0  0  0  0  0  0  0  0  0  0  0  0
   -0.3100    0.4120   -0.0430 C   0  0  0  0  0  0  0  0  0  0  0  0
    1.0280    1.0340    0.0310 C   0  0  0  0  0  0  0  0  0  0  0  0
    1.1520    2.4210    0.1230 C   0  0  0  0  0  0  0  0  0  0  0  0
    2.4050    2.9950    0.1970 C   0  0  0  0  0  0  0  0  0  0  0  0
    3.5360    2.1990    0.1790 C   0  0  0  0  0  0  0  0  0  0  0  0
    3.4200    0.8230    0.0880 C   0  0  0  0  0  0  0  0  0  0  0  0
    2.1740    0.2360    0.0140 C   0  0  0  0  0  0  0  0  0  0  0  0
    2.0120   -1.7130   -0.1070 Se  0  0  0  0  0  0  0  0  0  0  0  0
   -1.4150    1.1840   -0.0260 N   0  0  0  0  0  0  0  0  0  0  0  0
   -2.8710   -0.5980    0.7040 C   0  0  0  0  0  0  0  0  0  0  0  0
   -3.6110    2.1280   -1.1580 H   0  0  0  0  0  0  0  0  0  0  0  0
   -5.8380    1.0840   -1.0800 H   0  0  0  0  0  0  0  0  0  0  0  0
   -6.1660   -1.0310    0.1330 H   0  0  0  0  0  0  0  0  0  0  0  0
   -4.2690   -2.1090    1.2730 H   0  0  0  0  0  0  0  0  0  0  0  0
    0.2700    3.0440    0.1350 H   0  0  0  0  0  0  0  0  0  0  0  0
    2.5020    4.0680    0.2680 H   0  0  0  0  0  0  0  0  0  0  0  0
    4.5140    2.6530    0.2370 H   0  0  0  0  0  0  0  0  0  0  0  0
    4.3070    0.2070    0.0750 H   0  0  0  0  0  0  0  0  0  0  0  0
    2.0290   -1.9180   -1.6530 H   0  0  0  0  0  0  0  0  0  0  0  0
   -1.3310    2.1510   -0.0440 H   0  0  0  0  0  0  0  0  0  0  0  0
   -2.0390   -1.0720    1.2030 H   0  0  0  0  0  0  0  0  0  0  0  0
 10 11  2  0  0  0  0
  9 10  1  0  0  0  0
 11 12  1  0  0  0  0
  8  9  2  0  0  0  0
 12 13  2  0  0  0  0
  8 13  1  0  0  0  0
  7  8  1  0  0  0  0
  5 16  2  0  0  0  0
  1 16  1  0  0  0  0
 13 14  1  0  0  0  0
  7 15  1  0  0  0  0
  1 15  1  0  0  0  0
  4  5  1  0  0  0  0
  6  7  2  0  0  0  0
  1  2  2  0  0  0  0
  3  4  2  0  0  0  0
  2  3  1  0  0  0  0
  2 17  1  0  0  0  0
  3 18  1  0  0  0  0
  4 19  1  0  0  0  0
  5 20  1  0  0  0  0
  9 21  1  0  0  0  0
 10 22  1  0  0  0  0
 11 23  1  0  0  0  0
 12 24  1  0  0  0  0
 14 25  1  0  0  0  0
 15 26  1  0  0  0  0
 16 27  1  0  0  0  0
M  END
> <OPENEYE_ISO_SMILES>
c1ccc(cc1)NC(=O)c2ccccc2[SeH]

> <OPENEYE_INCHI>
InChI=1S/C13H11NOSe/c15-13(11-8-4-5-9-12(11)16)14-10-6-2-1-3-7-10/h1-9,16H,(H,14,15)

> <OPENEYE_INCHIKEY>
PVPUYGNPKBMXGO-UHFFFAOYSA-N

> <FORMULA>
C13H11NOSe

$$$$
