@<TRIPOS>MOLECULE
/home/pku/3cl/gett_pdb/5SR2/5SR2_mol2/ligand/5SR2_QYC.pdb
 49 52 0 0 0
SMALL
GASTEIGER

@<TRIPOS>ATOM
      1  C18      -49.4360  -29.0090    6.5800 C.ar  201  QYC201      0.0348
      2  C16      -47.3820  -29.0210    5.3610 C.ar  201  QYC201     -0.0479
      3  C17      -48.0540  -29.0290    6.5660 C.ar  201  QYC201     -0.0397
      4  C15      -48.1000  -28.9940    4.1720 C.ar  201  QYC201      0.0368
      5  C14      -47.3010  -29.0110    2.8490 C.2   201  QYC201      0.2445
      6  C12      -44.9370  -29.0990    1.8570 C.3   201  QYC201      0.0572
      7  C11      -44.9690  -27.8900    0.9010 C.ar  201  QYC201     -0.0199
      8  C10      -46.0020  -27.1210    0.3670 C.ar  201  QYC201     -0.0563
      9  C20      -51.5060  -29.1410    8.0720 C.2   201  QYC201      0.3041
     10  C02      -43.1530  -30.5410    2.8650 C.2   201  QYC201      0.0472
     11  C03      -43.5560  -29.1090    2.4180 C.3   201  QYC201      0.0252
     12  C04      -42.7060  -28.6360    1.2910 C.3   201  QYC201     -0.0140
     13  C05      -43.6280  -27.6120    0.5480 C.ar  201  QYC201     -0.0003
     14  C06      -43.3330  -26.5660   -0.3200 C.ar  201  QYC201      0.1204
     15  C08      -44.3720  -25.7890   -0.8510 C.ar  201  QYC201     -0.0199
     16  C09      -45.7090  -26.0690   -0.5060 C.ar  201  QYC201     -0.0580
     17  C22      -53.3990  -29.2980    9.7230 C.3   201  QYC201      0.0247
     18  C23      -53.7530  -29.5810   11.1780 C.3   201  QYC201     -0.0328
     19  C24      -53.8960  -30.6840   10.1280 C.3   201  QYC201     -0.0328
     20  C26      -50.1700  -29.0140    5.4010 C.ar  201  QYC201     -0.0397
     21  C27      -49.4890  -29.0010    4.1940 C.ar  201  QYC201     -0.0479
     22  N13      -45.8430  -29.0340    2.9820 N.am  201  QYC201     -0.3039
     23  N19      -50.0630  -29.0570    7.8900 N.am  201  QYC201     -0.2695
     24  N21      -51.9700  -29.2230    9.4440 N.am  201  QYC201     -0.2963
     25  O01      -43.3220  -30.8990    4.0630 O.co2 201  QYC201     -0.5495
     26  O07      -41.9860  -26.3160   -0.6410 O.3   201  QYC201     -0.5065
     27  O25      -52.2840  -29.1260    7.1770 O.2   201  QYC201     -0.2525
     28  O28      -47.8340  -29.0380    1.7890 O.2   201  QYC201     -0.2702
     29  O29      -42.6500  -31.3530    2.0390 O.co2 201  QYC201     -0.5495
     30 H161      -46.4530  -29.0310    5.3510 H     201  QYC201      0.0626
     31 H171      -47.5850  -29.0400    7.3680 H     201  QYC201      0.0636
     32 H121      -45.0920  -29.9140    1.3560 H     201  QYC201      0.0555
     33 H101      -46.8820  -27.3090    0.5960 H     201  QYC201      0.0621
     34 H031      -43.4930  -28.4880    3.1640 H     201  QYC201      0.0385
     35 H042      -42.4970  -29.3770    0.7010 H     201  QYC201      0.0321
     36 H041      -41.9210  -28.1850    1.6350 H     201  QYC201      0.0321
     37 H081      -44.1820  -25.0890   -1.4340 H     201  QYC201      0.0654
     38 H091      -46.4010  -25.5560   -0.8600 H     201  QYC201      0.0619
     39 H221      -54.0270  -28.7590    9.2270 H     201  QYC201      0.0499
     40 H231      -54.5790  -29.1810   11.4790 H     201  QYC201      0.0284
     41 H232      -52.9940  -29.6650   11.7720 H     201  QYC201      0.0284
     42 H241      -54.8030  -30.8970    9.8670 H     201  QYC201      0.0284
     43 H242      -53.2160  -31.3750   10.1490 H     201  QYC201      0.0284
     44 H261      -51.1070  -29.0130    5.4150 H     201  QYC201      0.0636
     45 H271      -49.9660  -28.9990    3.4020 H     201  QYC201      0.0626
     46 H131      -45.5070  -29.0290    3.7690 H     201  QYC201      0.1496
     47 H191      -49.5550  -29.0940    8.5800 H     201  QYC201      0.1564
     48 H211      -51.3970  -29.2350   10.0770 H     201  QYC201      0.1505
     49 H071      -41.9120  -25.5410   -0.9650 H     201  QYC201      0.2921
@<TRIPOS>UNITY_ATOM_ATTR
25 1
charge -1
@<TRIPOS>BOND
     1    37    15    1
     2    49    26    1
     3    38    16    1
     4    15    16   ar
     5    15    14   ar
     6    26    14    1
     7    16     8   ar
     8    14    13   ar
     9     8    33    1
    10     8     7   ar
    11    13     7   ar
    12    13    12    1
    13    35    12    1
    14     7     6    1
    15    12    36    1
    16    12    11    1
    17    32     6    1
    18    28     5    2
    19     6    11    1
    20     6    22    1
    21    29    10   ar
    22    11    10    1
    23    11    34    1
    24     5    22   am
    25     5     4    1
    26    10    25   ar
    27    22    46    1
    28    45    21    1
    29     4    21   ar
    30     4     2   ar
    31    21    20   ar
    32    30     2    1
    33     2     3   ar
    34    20    44    1
    35    20     1   ar
    36     3     1   ar
    37     3    31    1
    38     1    23    1
    39    27     9    2
    40    23     9   am
    41    23    47    1
    42     9    24   am
    43    39    17    1
    44    24    17    1
    45    24    48    1
    46    17    19    1
    47    17    18    1
    48    42    19    1
    49    19    43    1
    50    19    18    1
    51    18    40    1
    52    18    41    1
