QVL
  -OEChem-02242320033D

 30 32  0     0  0  0  0  0  0999 V2000
    3.0790   -0.2980   -0.1000 C   0  0  0  0  0  0  0  0  0  0  0  0
   -1.1900   -0.3640    0.2290 C   0  0  0  0  0  0  0  0  0  0  0  0
   -2.5780   -0.3100    0.1300 C   0  0  0  0  0  0  0  0  0  0  0  0
   -3.4920   -2.7550    0.6130 C   0  0  0  0  0  0  0  0  0  0  0  0
   -3.6520   -1.2940    0.2800 C   0  0  0  0  0  0  0  0  0  0  0  0
   -4.8070   -0.6450    0.0650 C   0  0  0  0  0  0  0  0  0  0  0  0
    1.0230   -1.3730   -0.9480 C   0  0  0  0  0  0  0  0  0  0  0  0
    1.0020    0.8220    0.1110 C   0  0  0  0  0  0  0  0  0  0  0  0
   -0.4710    0.8160    0.0200 C   0  0  0  0  0  0  0  0  0  0  0  0
   -1.1680    1.9940   -0.2780 C   0  0  0  0  0  0  0  0  0  0  0  0
   -3.2070    0.9140   -0.1790 C   0  0  0  0  0  0  0  0  0  0  0  0
    1.7060   -0.2530   -0.2970 N   0  0  0  0  0  0  0  0  0  0  0  0
   -2.4790    2.0090   -0.3630 N   0  0  0  0  0  0  0  0  0  0  0  0
   -4.5570    0.6730   -0.2110 N   0  0  0  0  0  0  0  0  0  0  0  0
    3.8160    0.6270    0.4730 N   0  0  0  0  0  0  0  0  0  0  0  0
    5.0490    0.2700    0.4950 N   0  0  0  0  0  0  0  0  0  0  0  0
    5.1900   -0.8890   -0.0520 N   0  0  0  0  0  0  0  0  0  0  0  0
    3.9090   -1.3050   -0.4550 N   0  0  0  0  0  0  0  0  0  0  0  0
    1.5800    1.7950    0.5540 O   0  0  0  0  0  0  0  0  0  0  0  0
   -0.6850   -1.2890    0.4650 H   0  0  0  0  0  0  0  0  0  0  0  0
   -3.5160   -2.8870    1.6940 H   0  0  0  0  0  0  0  0  0  0  0  0
   -4.3050   -3.3220    0.1600 H   0  0  0  0  0  0  0  0  0  0  0  0
   -2.5390   -3.1140    0.2240 H   0  0  0  0  0  0  0  0  0  0  0  0
   -5.7870   -1.0950    0.1020 H   0  0  0  0  0  0  0  0  0  0  0  0
    0.7820   -2.1330   -0.2050 H   0  0  0  0  0  0  0  0  0  0  0  0
    0.1040   -1.0160   -1.4140 H   0  0  0  0  0  0  0  0  0  0  0  0
    1.6730   -1.8020   -1.7100 H   0  0  0  0  0  0  0  0  0  0  0  0
   -0.6170    2.9080   -0.4400 H   0  0  0  0  0  0  0  0  0  0  0  0
   -5.2360    1.3390   -0.4010 H   0  0  0  0  0  0  0  0  0  0  0  0
    3.6710   -2.1360   -0.8960 H   0  0  0  0  0  0  0  0  0  0  0  0
  7 12  1  0  0  0  0
  8 19  2  0  0  0  0
  8  9  1  0  0  0  0
  9 10  2  0  0  0  0
 10 13  1  0  0  0  0
 11 13  2  0  0  0  0
 11 14  1  0  0  0  0
  6 14  1  0  0  0  0
  5  6  2  0  0  0  0
  4  5  1  0  0  0  0
  3  5  1  0  0  0  0
  2  3  2  0  0  0  0
  8 12  1  0  0  0  0
  1 12  1  0  0  0  0
  1 15  2  0  0  0  0
 15 16  1  0  0  0  0
 16 17  2  0  0  0  0
 17 18  1  0  0  0  0
  2  9  1  0  0  0  0
  3 11  1  0  0  0  0
  1 18  1  0  0  0  0
  2 20  1  0  0  0  0
  4 21  1  0  0  0  0
  4 22  1  0  0  0  0
  4 23  1  0  0  0  0
  6 24  1  0  0  0  0
  7 25  1  0  0  0  0
  7 26  1  0  0  0  0
  7 27  1  0  0  0  0
 10 28  1  0  0  0  0
 14 29  1  0  0  0  0
 18 30  1  0  0  0  0
M  END
> <OPENEYE_ISO_SMILES>
Cc1c[nH]c2c1cc(cn2)C(=O)N(C)c3[nH]nnn3

> <OPENEYE_INCHI>
InChI=1S/C11H11N7O/c1-6-4-12-9-8(6)3-7(5-13-9)10(19)18(2)11-14-16-17-15-11/h3-5H,1-2H3,(H,12,13)(H,14,15,16,17)

> <OPENEYE_INCHIKEY>
CHQWAWHCQBTQEW-UHFFFAOYSA-N

> <FORMULA>
C11H11N7O

$$$$
