@<TRIPOS>MOLECULE
/home/pku/3cl/gett_pdb/5SSF/5SSF_mol2/ligand/5SSF_RP0.pdb
 32 33 0 0 0
SMALL
GASTEIGER

@<TRIPOS>ATOM
      1  C16      -45.7140  -28.1610    0.4430 C.ar  201  RP0201      0.0675
      2  C17      -47.0580  -28.2490   -0.2630 C.1   201  RP0201      0.1003
      3  C14      -44.8700  -27.0970    0.2530 C.ar  201  RP0201      0.0353
      4  C13      -43.6690  -27.0160    0.8810 C.ar  201  RP0201     -0.0447
      5  C12      -43.2650  -27.9980    1.7220 C.ar  201  RP0201     -0.0382
      6  C11      -44.0930  -29.0610    1.9290 C.ar  201  RP0201      0.0493
      7  C20      -43.6700  -33.1320   -2.5940 C.2   201  RP0201      0.2769
      8  C19      -45.3180  -29.1630    1.2920 C.ar  201  RP0201     -0.0209
      9  C01      -46.4360  -33.5900    1.5340 C.3   201  RP0201     -0.0044
     10  C02      -45.3070  -33.0970    0.6470 C.ar  201  RP0201      0.1294
     11  C04      -44.0180  -32.8350   -1.1220 C.ar  201  RP0201      0.1911
     12  C05      -43.4910  -32.0280   -0.0940 C.ar  201  RP0201      0.0158
     13  C06      -44.3230  -32.2230    1.0270 C.ar  201  RP0201      0.1496
     14  N10      -43.6160  -30.0630    2.8140 N.pl3 201  RP0201     -0.2161
     15  N18      -48.0590  -28.3230   -0.7830 N.1   201  RP0201     -0.1908
     16  N22      -42.5410  -32.6290   -3.3550 N.am  201  RP0201     -0.3228
     17  O03      -45.1040  -33.4310   -0.6240 O.2   201  RP0201     -0.4533
     18  O08      -43.7790  -32.4690    3.7190 O.2   201  RP0201     -0.1499
     19  O09      -45.7470  -31.4440    3.1680 O.2   201  RP0201     -0.1499
     20  O21      -44.4220  -33.8600   -3.1650 O.2   201  RP0201     -0.2671
     21  S07      -44.3490  -31.5620    2.7270 S.O2  201  RP0201      0.0756
     22 BR15      -45.2920  -25.6260   -0.8910 Br    201  RP0201     -0.0490
     23 H131      -43.0540  -26.1720    0.6890 H     201  RP0201      0.0630
     24 H121      -42.3210  -27.9260    2.2260 H     201  RP0201      0.0637
     25 H191      -45.9630  -30.0110    1.4470 H     201  RP0201      0.0650
     26 H012      -46.7440  -34.5530    1.1510 H     201  RP0201      0.0308
     27 H013      -47.2540  -32.9000    1.4730 H     201  RP0201      0.0308
     28 H011      -46.1130  -33.6830    2.5740 H     201  RP0201      0.0308
     29 H051      -42.6140  -31.3790   -0.1400 H     201  RP0201      0.0677
     30 H101      -42.8730  -29.8730    3.4400 H     201  RP0201      0.1737
     31 H222      -42.4530  -32.8730   -4.3280 H     201  RP0201      0.1453
     32 H221      -41.8950  -31.9900   -2.9430 H     201  RP0201      0.1453
@<TRIPOS>BOND
     1    31    16    1
     2    16    32    1
     3    16     7   am
     4    20     7    2
     5     7    11    1
     6    11    17   ar
     7    11    12   ar
     8    22     3    1
     9    15     2    3
    10    17    10   ar
    11     2     1    1
    12    29    12    1
    13    12    13   ar
    14     3     1   ar
    15     3     4   ar
    16     1     8   ar
    17    10    13   ar
    18    10     9    1
    19    23     4    1
    20     4     5   ar
    21    13    21    1
    22    26     9    1
    23     8    25    1
    24     8     6   ar
    25    27     9    1
    26     9    28    1
    27     5     6   ar
    28     5    24    1
    29     6    14    1
    30    21    14    1
    31    21    19    2
    32    21    18    2
    33    14    30    1
