DW4
  -OEChem-02242320023D

 83 86  0     1  0  0  0  0  0999 V2000
   -2.3390   -1.6610    0.4650 C   0  0  0  0  0  0  0  0  0  0  0  0
   -1.7610   -1.4650    1.5160 O   0  0  0  0  0  0  0  0  0  0  0  0
   -3.6850   -1.6500    0.4250 O   0  0  0  0  0  0  0  0  0  0  0  0
   -4.3800   -1.3970    1.6750 C   0  0  0  0  0  0  0  0  0  0  0  0
   -5.8680   -1.4220    1.4360 C   0  0  0  0  0  0  0  0  0  0  0  0
   -6.5670   -2.6090    1.5560 C   0  0  0  0  0  0  0  0  0  0  0  0
   -7.9310   -2.6320    1.3370 C   0  0  0  0  0  0  0  0  0  0  0  0
   -8.5970   -1.4690    0.9990 C   0  0  0  0  0  0  0  0  0  0  0  0
   -7.8980   -0.2830    0.8790 C   0  0  0  0  0  0  0  0  0  0  0  0
   -6.5340   -0.2580    1.1030 C   0  0  0  0  0  0  0  0  0  0  0  0
    6.0010   -1.1970   -0.2550 N   0  0  0  0  0  0  0  0  0  0  0  0
    5.3980   -2.3740    0.3760 C   0  0  0  0  0  0  0  0  0  0  0  0
    5.2030   -3.4690   -0.6750 C   0  0  0  0  0  0  0  0  0  0  0  0
    3.7710   -3.6810   -0.8990 N   0  0  0  0  0  0  0  0  0  0  0  0
    1.3550   -0.2560   -1.3820 O   0  0  0  0  0  0  0  0  0  0  0  0
    0.3490   -0.4870   -0.7440 C   0  0  0  0  0  0  0  0  0  0  0  0
   -0.1690   -1.8970   -0.6170 C   0  0  2  0  0  0  0  0  0  0  0  0
    0.3690   -2.7440   -1.7720 C   0  0  0  0  0  0  0  0  0  0  0  0
    1.6830   -3.3630   -1.3730 C   0  0  0  0  0  0  0  0  0  0  0  0
    2.8820   -2.7390   -1.2890 C   0  0  0  0  0  0  0  0  0  0  0  0
    3.1430   -4.7950   -0.7580 N   0  0  0  0  0  0  0  0  0  0  0  0
    1.8960   -4.6390   -1.0310 N   0  0  0  0  0  0  0  0  0  0  0  0
   -1.6330   -1.8850   -0.6610 N   0  0  0  0  0  0  0  0  0  0  0  0
    2.5490    2.4740    0.6760 N   0  0  0  0  0  0  0  0  0  0  0  0
    3.4670    2.4850    1.8410 C   0  0  1  0  0  0  0  0  0  0  0  0
    4.8270    1.9470    1.3920 C   0  0  0  0  0  0  0  0  0  0  0  0
    4.6980    0.4650    1.0350 C   0  0  0  0  0  0  0  0  0  0  0  0
    5.9670   -0.0040    0.3710 C   0  0  0  0  0  0  0  0  0  0  0  0
    6.9590    0.6930    0.4000 O   0  0  0  0  0  0  0  0  0  0  0  0
    3.6260    3.9170    2.3580 C   0  0  0  0  0  0  0  0  0  0  0  0
    2.3790    4.3740    2.8840 O   0  0  0  0  0  0  0  0  0  0  0  0
   -0.3310    0.5230   -0.1310 N   0  0  0  0  0  0  0  0  0  0  0  0
    0.2970    1.8600   -0.1920 C   0  0  2  0  0  0  0  0  0  0  0  0
    1.2940    2.0000    0.9450 C   0  0  0  0  0  0  0  0  0  0  0  0
    0.9810    1.6800    2.0730 O   0  0  0  0  0  0  0  0  0  0  0  0
   -0.7800    2.9390   -0.0600 C   0  0  0  0  0  0  0  0  0  0  0  0
   -1.7220    2.8690   -1.2640 C   0  0  0  0  0  0  0  0  0  0  0  0
   -2.8780    3.8520   -1.0650 C   0  0  0  0  0  0  0  0  0  0  0  0
   -3.8200    3.7820   -2.2680 C   0  0  0  0  0  0  0  0  0  0  0  0
   -3.0510    4.1500   -3.5390 C   0  0  0  0  0  0  0  0  0  0  0  0
   -1.8950    3.1680   -3.7390 C   0  0  0  0  0  0  0  0  0  0  0  0
   -0.9530    3.2370   -2.5350 C   0  0  0  0  0  0  0  0  0  0  0  0
   -4.1150   -2.1660    2.4000 H   0  0  0  0  0  0  0  0  0  0  0  0
   -4.0900   -0.4190    2.0600 H   0  0  0  0  0  0  0  0  0  0  0  0
   -6.0460   -3.5180    1.8200 H   0  0  0  0  0  0  0  0  0  0  0  0
   -8.4770   -3.5600    1.4300 H   0  0  0  0  0  0  0  0  0  0  0  0
   -9.6630   -1.4880    0.8270 H   0  0  0  0  0  0  0  0  0  0  0  0
   -8.4180    0.6260    0.6140 H   0  0  0  0  0  0  0  0  0  0  0  0
   -5.9890    0.6700    1.0140 H   0  0  0  0  0  0  0  0  0  0  0  0
    6.4290   -1.2780   -1.1220 H   0  0  0  0  0  0  0  0  0  0  0  0
    6.0540   -2.7400    1.1660 H   0  0  0  0  0  0  0  0  0  0  0  0
    4.4310   -2.1030    0.8020 H   0  0  0  0  0  0  0  0  0  0  0  0
    5.6760   -3.1650   -1.6080 H   0  0  0  0  0  0  0  0  0  0  0  0
    5.6570   -4.3960   -0.3220 H   0  0  0  0  0  0  0  0  0  0  0  0
    0.1630   -2.3220    0.3300 H   0  0  0  0  0  0  0  0  0  0  0  0
   -0.3460   -3.5310   -2.0090 H   0  0  0  0  0  0  0  0  0  0  0  0
    0.5170   -2.1120   -2.6480 H   0  0  0  0  0  0  0  0  0  0  0  0
    3.0860   -1.6980   -1.4920 H   0  0  0  0  0  0  0  0  0  0  0  0
   -2.0950   -2.0380   -1.5000 H   0  0  0  0  0  0  0  0  0  0  0  0
    2.8170    2.7790   -0.2050 H   0  0  0  0  0  0  0  0  0  0  0  0
    3.0650    1.8500    2.6310 H   0  0  0  0  0  0  0  0  0  0  0  0
    5.1670    2.5030    0.5180 H   0  0  0  0  0  0  0  0  0  0  0  0
    5.5490    2.0640    2.2000 H   0  0  0  0  0  0  0  0  0  0  0  0
    4.5270   -0.1140    1.9420 H   0  0  0  0  0  0  0  0  0  0  0  0
    3.8590    0.3270    0.3520 H   0  0  0  0  0  0  0  0  0  0  0  0
    4.3820    3.9380    3.1430 H   0  0  0  0  0  0  0  0  0  0  0  0
    3.9350    4.5660    1.5380 H   0  0  0  0  0  0  0  0  0  0  0  0
    2.4060    5.2770    3.2300 H   0  0  0  0  0  0  0  0  0  0  0  0
   -1.1770    0.3730    0.3180 H   0  0  0  0  0  0  0  0  0  0  0  0
    0.8170    1.9770   -1.1430 H   0  0  0  0  0  0  0  0  0  0  0  0
   -1.3480    2.7750    0.8550 H   0  0  0  0  0  0  0  0  0  0  0  0
   -0.3080    3.9210   -0.0240 H   0  0  0  0  0  0  0  0  0  0  0  0
   -2.1170    1.8580   -1.3580 H   0  0  0  0  0  0  0  0  0  0  0  0
   -3.4250    3.5890   -0.1590 H   0  0  0  0  0  0  0  0  0  0  0  0
   -2.4830    4.8630   -0.9700 H   0  0  0  0  0  0  0  0  0  0  0  0
   -4.2150    2.7700   -2.3630 H   0  0  0  0  0  0  0  0  0  0  0  0
   -4.6430    4.4820   -2.1260 H   0  0  0  0  0  0  0  0  0  0  0  0
   -3.7220    4.1000   -4.3970 H   0  0  0  0  0  0  0  0  0  0  0  0
   -2.6560    5.1610   -3.4450 H   0  0  0  0  0  0  0  0  0  0  0  0
   -2.2900    2.1560   -3.8330 H   0  0  0  0  0  0  0  0  0  0  0  0
   -1.3480    3.4300   -4.6440 H   0  0  0  0  0  0  0  0  0  0  0  0
   -0.5590    4.2490   -2.4400 H   0  0  0  0  0  0  0  0  0  0  0  0
   -0.1300    2.5370   -2.6770 H   0  0  0  0  0  0  0  0  0  0  0  0
 30 31  1  0  0  0  0
 25 30  1  0  0  0  0
 28 29  2  0  0  0  0
 25 26  1  0  0  0  0
 24 25  1  0  0  0  0
 26 27  1  0  0  0  0
 27 28  1  0  0  0  0
 11 28  1  0  0  0  0
 24 34  1  0  0  0  0
 34 35  2  0  0  0  0
 12 13  1  0  0  0  0
 11 12  1  0  0  0  0
 13 14  1  0  0  0  0
 33 34  1  0  0  0  0
 33 36  1  0  0  0  0
 36 37  1  0  0  0  0
 14 20  1  0  0  0  0
 14 21  1  0  0  0  0
 32 33  1  0  0  0  0
 37 38  1  0  0  0  0
 38 39  1  0  0  0  0
 19 20  2  0  0  0  0
 37 42  1  0  0  0  0
 21 22  2  0  0  0  0
 39 40  1  0  0  0  0
 16 32  1  0  0  0  0
 41 42  1  0  0  0  0
 15 16  2  0  0  0  0
 19 22  1  0  0  0  0
 18 19  1  0  0  0  0
 40 41  1  0  0  0  0
 16 17  1  0  0  0  0
 17 18  1  0  0  0  0
 17 23  1  0  0  0  0
  1 23  1  0  0  0  0
  1  3  1  0  0  0  0
  1  2  2  0  0  0  0
  3  4  1  0  0  0  0
  4  5  1  0  0  0  0
  5 10  2  0  0  0  0
  9 10  1  0  0  0  0
  5  6  1  0  0  0  0
  8  9  2  0  0  0  0
  6  7  2  0  0  0  0
  7  8  1  0  0  0  0
 39 77  1  0  0  0  0
 39 76  1  0  0  0  0
 32 69  1  0  0  0  0
 33 70  1  0  0  0  0
 36 71  1  0  0  0  0
 36 72  1  0  0  0  0
 37 73  1  0  0  0  0
 42 82  1  0  0  0  0
 42 83  1  0  0  0  0
 41 81  1  0  0  0  0
 41 80  1  0  0  0  0
 40 79  1  0  0  0  0
 40 78  1  0  0  0  0
 38 75  1  0  0  0  0
 38 74  1  0  0  0  0
 24 60  1  0  0  0  0
 25 61  1  0  0  0  0
 26 62  1  0  0  0  0
 26 63  1  0  0  0  0
 27 64  1  0  0  0  0
 27 65  1  0  0  0  0
 11 50  1  0  0  0  0
 12 51  1  0  0  0  0
 12 52  1  0  0  0  0
 13 54  1  0  0  0  0
 13 53  1  0  0  0  0
 30 66  1  0  0  0  0
 30 67  1  0  0  0  0
 31 68  1  0  0  0  0
 17 55  1  0  0  0  0
 18 56  1  0  0  0  0
 18 57  1  0  0  0  0
 20 58  1  0  0  0  0
 23 59  1  0  0  0  0
  4 43  1  0  0  0  0
  4 44  1  0  0  0  0
  6 45  1  0  0  0  0
  7 46  1  0  0  0  0
  8 47  1  0  0  0  0
  9 48  1  0  0  0  0
 10 49  1  0  0  0  0
M  END
> <OPENEYE_ISO_SMILES>
c1ccc(cc1)COC(=O)N[C@H]2Cc3cn(nn3)CCNC(=O)CC[C@H](NC(=O)[C@@H](NC2=O)CC4CCCCC4)CO

> <OPENEYE_INCHI>
InChI=1S/C29H41N7O6/c37-18-22-11-12-26(38)30-13-14-36-17-23(34-35-36)16-25(33-29(41)42-19-21-9-5-2-6-10-21)28(40)32-24(27(39)31-22)15-20-7-3-1-4-8-20/h2,5-6,9-10,17,20,22,24-25,37H,1,3-4,7-8,11-16,18-19H2,(H,30,38)(H,31,39)(H,32,40)(H,33,41)/t22-,24-,25-/m0/s1

> <OPENEYE_INCHIKEY>
QPOBCHAUHXOWOC-HVCNVCAESA-N

> <FORMULA>
C29H41N7O6

$$$$
