51X
  -OEChem-02242320013D

 22 23  0     0  0  0  0  0  0999 V2000
   -2.9580   -0.0030    0.3730 C   0  0  0  0  0  0  0  0  0  0  0  0
   -2.1530    0.0040   -0.9010 C   0  0  0  0  0  0  0  0  0  0  0  0
    0.0190    1.1110   -0.4110 C   0  0  0  0  0  0  0  0  0  0  0  0
    1.4050    0.7050   -0.0950 C   0  0  0  0  0  0  0  0  0  0  0  0
    2.5780    1.3930    0.1740 C   0  0  0  0  0  0  0  0  0  0  0  0
    3.7420    0.6890    0.4390 C   0  0  0  0  0  0  0  0  0  0  0  0
    3.7410   -0.6930    0.4380 C   0  0  0  0  0  0  0  0  0  0  0  0
    2.5760   -1.3950    0.1710 C   0  0  0  0  0  0  0  0  0  0  0  0
    1.4040   -0.7040   -0.0960 C   0  0  0  0  0  0  0  0  0  0  0  0
    0.0180   -1.1070   -0.4130 C   0  0  0  0  0  0  0  0  0  0  0  0
   -2.3960   -0.0090    1.4430 O   0  0  0  0  0  0  0  0  0  0  0  0
   -0.7250    0.0020   -0.5760 N   0  0  0  0  0  0  0  0  0  0  0  0
   -0.3840   -2.2500   -0.5070 O   0  0  0  0  0  0  0  0  0  0  0  0
   -0.3820    2.2540   -0.5010 O   0  0  0  0  0  0  0  0  0  0  0  0
   -2.3930   -0.8830   -1.4870 H   0  0  0  0  0  0  0  0  0  0  0  0
   -2.3940    0.8970   -1.4780 H   0  0  0  0  0  0  0  0  0  0  0  0
    2.5850    2.4730    0.1760 H   0  0  0  0  0  0  0  0  0  0  0  0
    4.6560    1.2250    0.6490 H   0  0  0  0  0  0  0  0  0  0  0  0
    4.6550   -1.2300    0.6450 H   0  0  0  0  0  0  0  0  0  0  0  0
    2.5810   -2.4750    0.1700 H   0  0  0  0  0  0  0  0  0  0  0  0
   -4.2990    0.0020    0.3200 O   0  0  0  0  0  0  0  0  0  0  0  0
   -4.7720    0.0020    1.1640 H   0  0  0  0  0  0  0  0  0  0  0  0
 10 13  2  0  0  0  0
  7  8  2  0  0  0  0
  8  9  1  0  0  0  0
  6  7  1  0  0  0  0
  9 10  1  0  0  0  0
 10 12  1  0  0  0  0
  4  9  2  0  0  0  0
  5  6  2  0  0  0  0
  1 11  2  0  0  0  0
  1  2  1  0  0  0  0
  2 12  1  0  0  0  0
  3 12  1  0  0  0  0
  4  5  1  0  0  0  0
  3  4  1  0  0  0  0
  3 14  2  0  0  0  0
  2 15  1  0  0  0  0
  2 16  1  0  0  0  0
  5 17  1  0  0  0  0
  6 18  1  0  0  0  0
  7 19  1  0  0  0  0
  8 20  1  0  0  0  0
  1 21  1  0  0  0  0
 21 22  1  0  0  0  0
M  END
> <OPENEYE_ISO_SMILES>
c1ccc2c(c1)C(=O)N(C2=O)CC(=O)O

> <OPENEYE_INCHI>
InChI=1S/C10H7NO4/c12-8(13)5-11-9(14)6-3-1-2-4-7(6)10(11)15/h1-4H,5H2,(H,12,13)

> <OPENEYE_INCHIKEY>
WQINSVOOIJDOLJ-UHFFFAOYSA-N

> <FORMULA>
C10H7NO4

$$$$
