LGR
  -OEChem-02242320033D

 25 25  0     0  0  0  0  0  0999 V2000
    1.1460    0.4900    0.5310 N   0  0  0  0  0  0  0  0  0  0  0  0
   -0.2140    0.6760    0.2960 C   0  0  0  0  0  0  0  0  0  0  0  0
   -0.7560    1.9540    0.3170 C   0  0  0  0  0  0  0  0  0  0  0  0
   -2.1040    2.1370    0.0840 C   0  0  0  0  0  0  0  0  0  0  0  0
   -2.9260    1.0510   -0.1710 C   0  0  0  0  0  0  0  0  0  0  0  0
   -2.4050   -0.2250   -0.1960 C   0  0  0  0  0  0  0  0  0  0  0  0
   -0.4770   -1.7870    0.0030 C   0  0  0  0  0  0  0  0  0  0  0  0
    1.6300    0.2680    1.8960 C   0  0  0  0  0  0  0  0  0  0  0  0
    2.0160    0.5080   -0.4980 C   0  0  0  0  0  0  0  0  0  0  0  0
    3.1870    0.2540   -0.3070 O   0  0  0  0  0  0  0  0  0  0  0  0
    1.5350    0.8430   -1.8860 C   0  0  0  0  0  0  0  0  0  0  0  0
   -1.0410   -0.4260    0.0330 C   0  0  0  0  0  0  0  0  0  0  0  0
   -1.2760   -2.8420   -0.2510 O   0  0  0  0  0  0  0  0  0  0  0  0
    0.7090   -1.9570    0.2070 O   0  0  0  0  0  0  0  0  0  0  0  0
   -0.1230    2.8060    0.5160 H   0  0  0  0  0  0  0  0  0  0  0  0
   -2.5220    3.1330    0.1010 H   0  0  0  0  0  0  0  0  0  0  0  0
   -3.9800    1.2040   -0.3520 H   0  0  0  0  0  0  0  0  0  0  0  0
   -3.0500   -1.0680   -0.3950 H   0  0  0  0  0  0  0  0  0  0  0  0
    1.5500   -0.7910    2.1420 H   0  0  0  0  0  0  0  0  0  0  0  0
    2.6730    0.5790    1.9670 H   0  0  0  0  0  0  0  0  0  0  0  0
    1.0290    0.8500    2.5940 H   0  0  0  0  0  0  0  0  0  0  0  0
    0.4830    1.1270   -1.8470 H   0  0  0  0  0  0  0  0  0  0  0  0
    2.1210    1.6720   -2.2830 H   0  0  0  0  0  0  0  0  0  0  0  0
    1.6530   -0.0270   -2.5320 H   0  0  0  0  0  0  0  0  0  0  0  0
   -0.8600   -3.7150   -0.2610 H   0  0  0  0  0  0  0  0  0  0  0  0
  9 10  2  0  0  0  0
  9 11  1  0  0  0  0
  1  9  1  0  0  0  0
  1  8  1  0  0  0  0
  1  2  1  0  0  0  0
  7 14  2  0  0  0  0
  7 13  1  0  0  0  0
  7 12  1  0  0  0  0
  2 12  2  0  0  0  0
  2  3  1  0  0  0  0
  6 12  1  0  0  0  0
  3  4  2  0  0  0  0
  5  6  2  0  0  0  0
  4  5  1  0  0  0  0
  3 15  1  0  0  0  0
  4 16  1  0  0  0  0
  5 17  1  0  0  0  0
  6 18  1  0  0  0  0
  8 19  1  0  0  0  0
  8 20  1  0  0  0  0
  8 21  1  0  0  0  0
 11 22  1  0  0  0  0
 11 23  1  0  0  0  0
 11 24  1  0  0  0  0
 13 25  1  0  0  0  0
M  END
> <OPENEYE_ISO_SMILES>
CC(=O)N(C)c1ccccc1C(=O)O

> <OPENEYE_INCHI>
InChI=1S/C10H11NO3/c1-7(12)11(2)9-6-4-3-5-8(9)10(13)14/h3-6H,1-2H3,(H,13,14)

> <OPENEYE_INCHIKEY>
VCOQVAJFXPHUAM-UHFFFAOYSA-N

> <FORMULA>
C10H11NO3

$$$$
