T8J
  -OEChem-02242320043D

 30 31  0     0  0  0  0  0  0999 V2000
    0.0990    0.7920    0.4420 N   0  0  0  0  0  0  0  0  0  0  0  0
    1.2600    1.6840    0.5720 C   0  0  0  0  0  0  0  0  0  0  0  0
    2.3140    1.2710   -0.4630 C   0  0  0  0  0  0  0  0  0  0  0  0
   -1.1330    1.2970    0.2330 C   0  0  0  0  0  0  0  0  0  0  0  0
   -2.2560    0.3970   -0.0480 C   0  0  0  0  0  0  0  0  0  0  0  0
   -3.2330    0.6150   -0.9770 C   0  0  0  0  0  0  0  0  0  0  0  0
   -3.9600   -1.4050   -0.1800 C   0  0  0  0  0  0  0  0  0  0  0  0
    2.5220   -0.1810   -0.3680 N   0  0  0  0  0  0  0  0  0  0  0  0
    4.9530    0.2290   -0.1650 C   0  0  0  0  0  0  0  0  0  0  0  0
    3.9000   -1.8750    0.0200 O   0  0  0  0  0  0  0  0  0  0  0  0
    3.7550   -0.6850   -0.1640 C   0  0  0  0  0  0  0  0  0  0  0  0
    1.3610   -1.0720   -0.4980 C   0  0  0  0  0  0  0  0  0  0  0  0
    0.3070   -0.6590    0.5370 C   0  0  0  0  0  0  0  0  0  0  0  0
   -4.1650   -0.3940   -1.0330 C   0  0  0  0  0  0  0  0  0  0  0  0
   -1.3140    2.4990    0.2780 O   0  0  0  0  0  0  0  0  0  0  0  0
   -2.5560   -1.1400    0.7520 S   0  0  0  0  0  0  0  0  0  0  0  0
    0.9520    2.7140    0.3900 H   0  0  0  0  0  0  0  0  0  0  0  0
    1.6780    1.5960    1.5750 H   0  0  0  0  0  0  0  0  0  0  0  0
    1.9640    1.5260   -1.4630 H   0  0  0  0  0  0  0  0  0  0  0  0
    3.2510    1.7890   -0.2580 H   0  0  0  0  0  0  0  0  0  0  0  0
   -3.2700    1.4920   -1.6050 H   0  0  0  0  0  0  0  0  0  0  0  0
   -4.5970   -2.2730   -0.0950 H   0  0  0  0  0  0  0  0  0  0  0  0
    4.8990    0.8990    0.6930 H   0  0  0  0  0  0  0  0  0  0  0  0
    5.8640   -0.3660   -0.1060 H   0  0  0  0  0  0  0  0  0  0  0  0
    4.9610    0.8160   -1.0840 H   0  0  0  0  0  0  0  0  0  0  0  0
    0.9430   -0.9840   -1.5010 H   0  0  0  0  0  0  0  0  0  0  0  0
    1.6690   -2.1020   -0.3190 H   0  0  0  0  0  0  0  0  0  0  0  0
    0.6570   -0.9140    1.5370 H   0  0  0  0  0  0  0  0  0  0  0  0
   -0.6300   -1.1770    0.3310 H   0  0  0  0  0  0  0  0  0  0  0  0
   -5.0040   -0.3710   -1.7130 H   0  0  0  0  0  0  0  0  0  0  0  0
  9 11  1  0  0  0  0
 10 11  2  0  0  0  0
  8 11  1  0  0  0  0
  8 12  1  0  0  0  0
 12 13  1  0  0  0  0
  1 13  1  0  0  0  0
  1  2  1  0  0  0  0
  2  3  1  0  0  0  0
  3  8  1  0  0  0  0
  1  4  1  0  0  0  0
  4 15  2  0  0  0  0
  4  5  1  0  0  0  0
  5  6  2  0  0  0  0
  6 14  1  0  0  0  0
  7 14  2  0  0  0  0
  7 16  1  0  0  0  0
  5 16  1  0  0  0  0
  2 17  1  0  0  0  0
  2 18  1  0  0  0  0
  3 19  1  0  0  0  0
  3 20  1  0  0  0  0
  6 21  1  0  0  0  0
  7 22  1  0  0  0  0
  9 23  1  0  0  0  0
  9 24  1  0  0  0  0
  9 25  1  0  0  0  0
 12 26  1  0  0  0  0
 12 27  1  0  0  0  0
 13 28  1  0  0  0  0
 13 29  1  0  0  0  0
 14 30  1  0  0  0  0
M  END
> <OPENEYE_ISO_SMILES>
CC(=O)N1CCN(CC1)C(=O)c2cccs2

> <OPENEYE_INCHI>
InChI=1S/C11H14N2O2S/c1-9(14)12-4-6-13(7-5-12)11(15)10-3-2-8-16-10/h2-3,8H,4-7H2,1H3

> <OPENEYE_INCHIKEY>
VSORHSQQVYIMDG-UHFFFAOYSA-N

> <FORMULA>
C11H14N2O2S

$$$$
