XM2
  -OEChem-02242320043D

 87 89  0     1  0  0  0  0  0999 V2000
    9.4570   -1.1370   -1.6620 C   0  0  0  0  0  0  0  0  0  0  0  0
   -1.1320    3.2950   -0.3660 C   0  0  0  0  0  0  0  0  0  0  0  0
    1.5320    0.8850    0.9660 C   0  0  2  0  0  0  0  0  0  0  0  0
    0.3130    0.2060    0.3970 C   0  0  0  0  0  0  0  0  0  0  0  0
    0.2430    4.1300   -2.2770 C   0  0  0  0  0  0  0  0  0  0  0  0
   -2.0130   -0.5010    0.5700 C   0  0  2  0  0  0  0  0  0  0  0  0
   -3.2820    0.1490    1.0580 C   0  0  0  0  0  0  0  0  0  0  0  0
    0.6440    5.0070    0.0280 C   0  0  0  0  0  0  0  0  0  0  0  0
   -5.7120    0.2560    1.2000 C   0  0  1  0  0  0  0  0  0  0  0  0
   -0.7380   -2.6260    0.5030 C   0  0  0  0  0  0  0  0  0  0  0  0
   -6.8600   -0.0890    0.2490 C   0  0  0  0  0  0  0  0  0  0  0  0
    9.1580    0.1910   -1.4170 C   0  0  0  0  0  0  0  0  0  0  0  0
   -6.5890    0.5330   -1.1230 C   0  0  2  0  0  0  0  0  0  0  0  0
   -7.7510    0.2240   -2.0960 C   0  0  0  0  0  0  0  0  0  0  0  0
   -7.2400   -1.0510   -2.8030 C   0  0  0  0  0  0  0  0  0  0  0  0
    0.4760   -2.5750    1.1610 C   0  0  0  0  0  0  0  0  0  0  0  0
   -5.3830   -0.1150   -1.7680 C   0  0  0  0  0  0  0  0  0  0  0  0
    1.5820   -3.2060    0.6230 C   0  0  0  0  0  0  0  0  0  0  0  0
    1.4740   -3.8880   -0.5740 C   0  0  0  0  0  0  0  0  0  0  0  0
    0.2590   -3.9400   -1.2330 C   0  0  0  0  0  0  0  0  0  0  0  0
   -0.8480   -3.3140   -0.6920 C   0  0  0  0  0  0  0  0  0  0  0  0
    8.1180    0.5190   -0.5670 C   0  0  0  0  0  0  0  0  0  0  0  0
    1.3870    2.4010    0.8200 C   0  0  1  0  0  0  0  0  0  0  0  0
    2.6460    3.0870    1.3520 C   0  0  0  0  0  0  0  0  0  0  0  0
   -6.0420   -0.2580    2.6030 C   0  0  0  0  0  0  0  0  0  0  0  0
   -1.9430   -1.9380    1.0890 C   0  0  0  0  0  0  0  0  0  0  0  0
    7.3780   -0.4790    0.0380 C   0  0  0  0  0  0  0  0  0  0  0  0
    7.6770   -1.8060   -0.2080 C   0  0  0  0  0  0  0  0  0  0  0  0
    8.7130   -2.1350   -1.0620 C   0  0  0  0  0  0  0  0  0  0  0  0
    6.2450   -0.1210    0.9650 C   0  0  0  0  0  0  0  0  0  0  0  0
    0.2580    3.7730   -0.7890 C   0  0  0  0  0  0  0  0  0  0  0  0
    3.8990    0.3130    0.8880 C   0  0  0  0  0  0  0  0  0  0  0  0
    2.7230    0.4360    0.2410 N   0  0  0  0  0  0  0  0  0  0  0  0
   -0.8580    0.2530    1.0640 N   0  0  0  0  0  0  0  0  0  0  0  0
   -4.4780   -0.3760    0.7260 N   0  0  0  0  0  0  0  0  0  0  0  0
   -5.7770   -0.9920   -2.7080 N   0  0  0  0  0  0  0  0  0  0  0  0
   -4.2290    0.1240   -1.4810 O   0  0  0  0  0  0  0  0  0  0  0  0
    3.9530    0.4880    2.0890 O   0  0  0  0  0  0  0  0  0  0  0  0
    1.2100    2.7320   -0.5590 O   0  0  0  0  0  0  0  0  0  0  0  0
    0.3840   -0.3820   -0.6610 O   0  0  0  0  0  0  0  0  0  0  0  0
   -6.3310   -1.6560    2.5420 O   0  0  0  0  0  0  0  0  0  0  0  0
   -3.2270    1.1430    1.7500 O   0  0  0  0  0  0  0  0  0  0  0  0
    5.0140   -0.0050    0.2030 O   0  0  0  0  0  0  0  0  0  0  0  0
   10.2690   -1.3930   -2.3260 H   0  0  0  0  0  0  0  0  0  0  0  0
   -1.8530    4.0990   -0.5140 H   0  0  0  0  0  0  0  0  0  0  0  0
   -1.4200    2.4340   -0.9690 H   0  0  0  0  0  0  0  0  0  0  0  0
   -1.1150    3.0120    0.6870 H   0  0  0  0  0  0  0  0  0  0  0  0
    1.6310    0.6290    2.0210 H   0  0  0  0  0  0  0  0  0  0  0  0
    1.2340    4.4700   -2.5790 H   0  0  0  0  0  0  0  0  0  0  0  0
   -0.0320    3.2510   -2.8590 H   0  0  0  0  0  0  0  0  0  0  0  0
   -0.4820    4.9240   -2.4530 H   0  0  0  0  0  0  0  0  0  0  0  0
   -2.0040   -0.5070   -0.5200 H   0  0  0  0  0  0  0  0  0  0  0  0
    0.5790    4.7740    1.0910 H   0  0  0  0  0  0  0  0  0  0  0  0
    1.6650    5.3000   -0.2170 H   0  0  0  0  0  0  0  0  0  0  0  0
   -0.0360    5.8260   -0.2070 H   0  0  0  0  0  0  0  0  0  0  0  0
   -5.5780    1.3370    1.2310 H   0  0  0  0  0  0  0  0  0  0  0  0
   -6.9360   -1.1710    0.1480 H   0  0  0  0  0  0  0  0  0  0  0  0
   -7.7940    0.3060    0.6480 H   0  0  0  0  0  0  0  0  0  0  0  0
    9.7360    0.9710   -1.8890 H   0  0  0  0  0  0  0  0  0  0  0  0
   -6.4410    1.6090   -1.0310 H   0  0  0  0  0  0  0  0  0  0  0  0
   -8.6730    0.0250   -1.5510 H   0  0  0  0  0  0  0  0  0  0  0  0
   -7.8880    1.0370   -2.8090 H   0  0  0  0  0  0  0  0  0  0  0  0
   -7.6150   -1.9390   -2.2950 H   0  0  0  0  0  0  0  0  0  0  0  0
    0.5610   -2.0420    2.0970 H   0  0  0  0  0  0  0  0  0  0  0  0
    2.5310   -3.1650    1.1370 H   0  0  0  0  0  0  0  0  0  0  0  0
    2.3380   -4.3800   -0.9960 H   0  0  0  0  0  0  0  0  0  0  0  0
    0.1750   -4.4730   -2.1690 H   0  0  0  0  0  0  0  0  0  0  0  0
   -1.7960   -3.3540   -1.2060 H   0  0  0  0  0  0  0  0  0  0  0  0
    7.8840    1.5560   -0.3760 H   0  0  0  0  0  0  0  0  0  0  0  0
    0.5210    2.7390    1.3890 H   0  0  0  0  0  0  0  0  0  0  0  0
    3.4950    2.8320    0.7160 H   0  0  0  0  0  0  0  0  0  0  0  0
    2.5010    4.1670    1.3470 H   0  0  0  0  0  0  0  0  0  0  0  0
    2.8410    2.7510    2.3700 H   0  0  0  0  0  0  0  0  0  0  0  0
   -5.1880   -0.0920    3.2600 H   0  0  0  0  0  0  0  0  0  0  0  0
   -6.9090    0.2760    2.9920 H   0  0  0  0  0  0  0  0  0  0  0  0
   -1.8630   -1.9280    2.1760 H   0  0  0  0  0  0  0  0  0  0  0  0
   -2.8460   -2.4740    0.7970 H   0  0  0  0  0  0  0  0  0  0  0  0
    7.0950   -2.5860    0.2610 H   0  0  0  0  0  0  0  0  0  0  0  0
    8.9460   -3.1720   -1.2530 H   0  0  0  0  0  0  0  0  0  0  0  0
    6.1330   -0.8990    1.7200 H   0  0  0  0  0  0  0  0  0  0  0  0
    6.4610    0.8300    1.4520 H   0  0  0  0  0  0  0  0  0  0  0  0
    2.6660    0.2280   -0.7050 H   0  0  0  0  0  0  0  0  0  0  0  0
   -0.9350    0.7860    1.8700 H   0  0  0  0  0  0  0  0  0  0  0  0
   -4.5220   -1.1710    0.1720 H   0  0  0  0  0  0  0  0  0  0  0  0
   -6.5490   -2.0500    3.3980 H   0  0  0  0  0  0  0  0  0  0  0  0
   -7.5520   -1.0540   -3.8470 H   0  0  0  0  0  0  0  0  0  0  0  0
   -5.1710   -1.5180   -3.2530 H   0  0  0  0  0  0  0  0  0  0  0  0
 18 19  2  0  0  0  0
 19 20  1  0  0  0  0
 16 18  1  0  0  0  0
 28 29  2  0  0  0  0
 27 28  1  0  0  0  0
 27 30  1  0  0  0  0
 30 43  1  0  0  0  0
 20 21  2  0  0  0  0
  1 29  1  0  0  0  0
 22 27  2  0  0  0  0
  1 12  2  0  0  0  0
 12 22  1  0  0  0  0
 10 16  2  0  0  0  0
 32 43  1  0  0  0  0
 10 21  1  0  0  0  0
 32 38  2  0  0  0  0
 32 33  1  0  0  0  0
 10 26  1  0  0  0  0
  3 33  1  0  0  0  0
  6 26  1  0  0  0  0
  6 34  1  0  0  0  0
  4 34  1  0  0  0  0
  3  4  1  0  0  0  0
  3 23  1  0  0  0  0
  6  7  1  0  0  0  0
  8 31  1  0  0  0  0
  4 40  2  0  0  0  0
 31 39  1  0  0  0  0
 23 39  1  0  0  0  0
  2 31  1  0  0  0  0
  5 31  1  0  0  0  0
 23 24  1  0  0  0  0
  7 35  1  0  0  0  0
  7 42  2  0  0  0  0
  9 35  1  0  0  0  0
  9 25  1  0  0  0  0
 25 41  1  0  0  0  0
  9 11  1  0  0  0  0
 11 13  1  0  0  0  0
 13 17  1  0  0  0  0
 13 14  1  0  0  0  0
 17 37  2  0  0  0  0
 17 36  1  0  0  0  0
 14 15  1  0  0  0  0
 15 36  1  0  0  0  0
  1 44  1  0  0  0  0
  2 45  1  0  0  0  0
  2 46  1  0  0  0  0
  2 47  1  0  0  0  0
  3 48  1  0  0  0  0
  5 49  1  0  0  0  0
  5 50  1  0  0  0  0
  5 51  1  0  0  0  0
  6 52  1  0  0  0  0
  8 53  1  0  0  0  0
  8 54  1  0  0  0  0
  8 55  1  0  0  0  0
  9 56  1  0  0  0  0
 11 57  1  0  0  0  0
 11 58  1  0  0  0  0
 12 59  1  0  0  0  0
 13 60  1  0  0  0  0
 14 61  1  0  0  0  0
 14 62  1  0  0  0  0
 15 63  1  0  0  0  0
 16 64  1  0  0  0  0
 18 65  1  0  0  0  0
 19 66  1  0  0  0  0
 20 67  1  0  0  0  0
 21 68  1  0  0  0  0
 22 69  1  0  0  0  0
 23 70  1  0  0  0  0
 24 71  1  0  0  0  0
 24 72  1  0  0  0  0
 24 73  1  0  0  0  0
 25 74  1  0  0  0  0
 25 75  1  0  0  0  0
 26 76  1  0  0  0  0
 26 77  1  0  0  0  0
 28 78  1  0  0  0  0
 29 79  1  0  0  0  0
 30 80  1  0  0  0  0
 30 81  1  0  0  0  0
 33 82  1  0  0  0  0
 34 83  1  0  0  0  0
 35 84  1  0  0  0  0
 41 85  1  0  0  0  0
 15 86  1  0  0  0  0
 36 87  1  0  0  0  0
M  END
> <OPENEYE_ISO_SMILES>
C[C@H]([C@@H](C(=O)N[C@@H](Cc1ccccc1)C(=O)N[C@@H](C[C@@H]2CCNC2=O)CO)NC(=O)OCc3ccccc3)OC(C)(C)C

> <OPENEYE_INCHI>
InChI=1S/C32H44N4O7/c1-21(43-32(2,3)4)27(36-31(41)42-20-23-13-9-6-10-14-23)30(40)35-26(17-22-11-7-5-8-12-22)29(39)34-25(19-37)18-24-15-16-33-28(24)38/h5-14,21,24-27,37H,15-20H2,1-4H3,(H,33,38)(H,34,39)(H,35,40)(H,36,41)/t21-,24+,25+,26+,27+/m1/s1

> <OPENEYE_INCHIKEY>
QJOPPFBQFHKESK-FFXRMZKPSA-N

> <FORMULA>
C32H44N4O7

$$$$
