@<TRIPOS>MOLECULE
/home/pku/3cl/gett_pdb/5SQQ/5SQQ_mol2/ligand/5SQQ_QU3.pdb
 38 40 0 0 0
SMALL
GASTEIGER

@<TRIPOS>ATOM
      1  C18      -45.0190  -29.1810    6.0980 C.ar  201  QU3201      0.2127
      2  C16      -47.2130  -29.2020    5.3380 C.ar  201  QU3201      0.0525
      3  C15      -48.2460  -29.1090    4.2310 C.3   201  QU3201      0.0059
      4  C14      -49.4140  -28.3460    4.8170 C.3   201  QU3201      0.0207
      5  C11      -51.4460  -29.5070    5.6970 C.2   201  QU3201      0.2500
      6  C01      -55.4520  -32.0680   10.5870 C.3   201  QU3201      0.0060
      7  C06      -53.9650  -31.4100    7.6210 C.ar  201  QU3201      0.2584
      8  C07      -53.5900  -30.6070    6.5590 C.ar  201  QU3201      0.0160
      9  C08      -52.2400  -30.3430    6.7080 C.ar  201  QU3201      0.0766
     10  C09      -51.8140  -30.9540    7.8800 C.ar  201  QU3201      0.1064
     11  C21      -46.7250  -29.4400    7.6520 C.ar  201  QU3201      0.0376
     12  C22      -47.6670  -29.3500    6.6250 C.ar  201  QU3201      0.0094
     13  C23      -49.1720  -29.4730    6.9840 C.3   201  QU3201      0.0432
     14  N02      -56.1750  -31.6060    9.4190 N.3   201  QU3201     -0.1902
     15  N13      -50.0470  -29.1250    5.8620 N.am  201  QU3201     -0.2927
     16  N17      -45.8840  -29.1140    5.1080 N.ar  201  QU3201     -0.2193
     17  N19      -43.5940  -29.0840    5.8420 N.pl3 201  QU3201     -0.3275
     18  N20      -45.4360  -29.3470    7.3410 N.ar  201  QU3201     -0.2228
     19  O04      -56.5610  -31.5960    6.8530 O.2   201  QU3201     -0.1501
     20  O05      -55.6830  -33.5250    7.6860 O.2   201  QU3201     -0.1501
     21  O10      -52.8840  -31.5820    8.4060 O.2   201  QU3201     -0.4443
     22  O12      -52.0140  -29.1550    4.7190 O.2   201  QU3201     -0.2699
     23  S03      -55.6350  -32.0730    7.8820 S.O2  201  QU3201      0.0913
     24 H152      -47.8340  -28.5230    3.4240 H     201  QU3201      0.0344
     25 H151      -48.5310  -30.1140    3.9330 H     201  QU3201      0.0344
     26 H142      -49.0000  -27.4530    5.2800 H     201  QU3201      0.0468
     27 H141      -50.1170  -28.1120    4.0340 H     201  QU3201      0.0468
     28 H012      -55.8260  -31.5550   11.4630 H     201  QU3201      0.0405
     29 H013      -54.3950  -31.8510   10.4600 H     201  QU3201      0.0405
     30 H011      -55.5930  -33.1360   10.6960 H     201  QU3201      0.0405
     31 H071      -54.2090  -30.3320    5.7030 H     201  QU3201      0.0677
     32 H091      -50.8090  -30.9320    8.2860 H     201  QU3201      0.1038
     33 H211      -47.0310  -29.5610    8.6970 H     201  QU3201      0.0834
     34 H232      -49.3880  -28.8290    7.8460 H     201  QU3201      0.0515
     35 H231      -49.3350  -30.4950    7.2930 H     201  QU3201      0.0515
     36 H021      -56.9490  -30.9810    9.4890 H     201  QU3201      0.1478
     37 H191      -43.1310  -29.8050    5.3260 H     201  QU3201      0.1452
     38 H192      -43.0770  -28.2960    6.1880 H     201  QU3201      0.1452
@<TRIPOS>BOND
     1    24     3    1
     2    25     3    1
     3    27     4    1
     4     3     4    1
     5     3     2    1
     6    22     5    2
     7     4    26    1
     8     4    15    1
     9    16     2   ar
    10    16     1   ar
    11    37    17    1
    12     2    12   ar
    13     5    15   am
    14     5     9    1
    15    31     8    1
    16    17     1    1
    17    17    38    1
    18    15    13    1
    19     1    18   ar
    20     8     9   ar
    21     8     7   ar
    22    12    13    1
    23    12    11   ar
    24     9    10   ar
    25    19    23    2
    26    13    35    1
    27    13    34    1
    28    18    11   ar
    29     7    23    1
    30     7    21   ar
    31    11    33    1
    32    20    23    2
    33    10    32    1
    34    10    21   ar
    35    23    14    1
    36    14    36    1
    37    14     6    1
    38    29     6    1
    39     6    30    1
    40     6    28    1
