1PE
  -OEChem-02242320003D

 38 37  0     0  0  0  0  0  0999 V2000
   -0.3580   -1.0240    6.3470 O   0  0  0  0  0  0  0  0  0  0  0  0
   -1.5230   -0.9100    5.5290 C   0  0  0  0  0  0  0  0  0  0  0  0
   -1.4470    0.3780    4.7090 C   0  0  0  0  0  0  0  0  0  0  0  0
   -0.2840    0.3470    3.8790 O   0  0  0  0  0  0  0  0  0  0  0  0
    0.9570    1.6030    2.2290 C   0  0  0  0  0  0  0  0  0  0  0  0
   -0.2690    1.5720    3.1430 C   0  0  0  0  0  0  0  0  0  0  0  0
    0.9030    0.5010    1.3210 O   0  0  0  0  0  0  0  0  0  0  0  0
    2.0730   -0.5720   -0.5000 C   0  0  0  0  0  0  0  0  0  0  0  0
    2.0690    0.5850    0.5000 C   0  0  0  0  0  0  0  0  0  0  0  0
    0.9060   -0.4950   -1.3210 O   0  0  0  0  0  0  0  0  0  0  0  0
   -0.2600   -1.5730   -3.1430 C   0  0  0  0  0  0  0  0  0  0  0  0
    0.9670   -1.5970   -2.2290 C   0  0  0  0  0  0  0  0  0  0  0  0
   -0.2820   -0.3490   -3.8790 O   0  0  0  0  0  0  0  0  0  0  0  0
   -1.5290    0.9010   -5.5290 C   0  0  0  0  0  0  0  0  0  0  0  0
   -1.4450   -0.3870   -4.7090 C   0  0  0  0  0  0  0  0  0  0  0  0
   -0.3640    1.0220   -6.3470 O   0  0  0  0  0  0  0  0  0  0  0  0
   -0.4450   -1.8480    6.8460 H   0  0  0  0  0  0  0  0  0  0  0  0
   -1.5800   -1.7660    4.8560 H   0  0  0  0  0  0  0  0  0  0  0  0
   -2.4110   -0.8870    6.1620 H   0  0  0  0  0  0  0  0  0  0  0  0
   -2.3370    0.4650    4.0850 H   0  0  0  0  0  0  0  0  0  0  0  0
   -1.3910    1.2340    5.3820 H   0  0  0  0  0  0  0  0  0  0  0  0
    0.9680    2.5370    1.6670 H   0  0  0  0  0  0  0  0  0  0  0  0
    1.8610    1.5310    2.8340 H   0  0  0  0  0  0  0  0  0  0  0  0
   -1.1740    1.6430    2.5380 H   0  0  0  0  0  0  0  0  0  0  0  0
   -0.2280    2.4120    3.8350 H   0  0  0  0  0  0  0  0  0  0  0  0
    2.9630   -0.5080   -1.1260 H   0  0  0  0  0  0  0  0  0  0  0  0
    2.0760   -1.5190    0.0390 H   0  0  0  0  0  0  0  0  0  0  0  0
    2.0660    1.5320   -0.0390 H   0  0  0  0  0  0  0  0  0  0  0  0
    2.9590    0.5260    1.1260 H   0  0  0  0  0  0  0  0  0  0  0  0
   -0.2130   -2.4130   -3.8350 H   0  0  0  0  0  0  0  0  0  0  0  0
   -1.1630   -1.6500   -2.5380 H   0  0  0  0  0  0  0  0  0  0  0  0
    1.8710   -1.5190   -2.8340 H   0  0  0  0  0  0  0  0  0  0  0  0
    0.9840   -2.5300   -1.6670 H   0  0  0  0  0  0  0  0  0  0  0  0
   -2.4160    0.8710   -6.1620 H   0  0  0  0  0  0  0  0  0  0  0  0
   -1.5910    1.7560   -4.8560 H   0  0  0  0  0  0  0  0  0  0  0  0
   -1.3830   -1.2430   -5.3820 H   0  0  0  0  0  0  0  0  0  0  0  0
   -2.3340   -0.4800   -4.0850 H   0  0  0  0  0  0  0  0  0  0  0  0
   -0.4570    1.8450   -6.8460 H   0  0  0  0  0  0  0  0  0  0  0  0
  1  2  1  0  0  0  0
  1 17  1  0  0  0  0
  2  3  1  0  0  0  0
  2 18  1  0  0  0  0
  2 19  1  0  0  0  0
  3  4  1  0  0  0  0
  3 20  1  0  0  0  0
  3 21  1  0  0  0  0
  4  6  1  0  0  0  0
  5  6  1  0  0  0  0
  5  7  1  0  0  0  0
  5 22  1  0  0  0  0
  5 23  1  0  0  0  0
  6 24  1  0  0  0  0
  6 25  1  0  0  0  0
  7  9  1  0  0  0  0
  8  9  1  0  0  0  0
  8 10  1  0  0  0  0
  8 26  1  0  0  0  0
  8 27  1  0  0  0  0
  9 28  1  0  0  0  0
  9 29  1  0  0  0  0
 10 12  1  0  0  0  0
 11 12  1  0  0  0  0
 11 13  1  0  0  0  0
 11 30  1  0  0  0  0
 11 31  1  0  0  0  0
 12 32  1  0  0  0  0
 12 33  1  0  0  0  0
 13 15  1  0  0  0  0
 14 15  1  0  0  0  0
 14 16  1  0  0  0  0
 14 34  1  0  0  0  0
 14 35  1  0  0  0  0
 15 36  1  0  0  0  0
 15 37  1  0  0  0  0
 16 38  1  0  0  0  0
M  END
> <OPENEYE_ISO_SMILES>
C(COCCOCCOCCOCCO)O

> <OPENEYE_INCHI>
InChI=1S/C10H22O6/c11-1-3-13-5-7-15-9-10-16-8-6-14-4-2-12/h11-12H,1-10H2

> <OPENEYE_INCHIKEY>
JLFNLZLINWHATN-UHFFFAOYSA-N

> <FORMULA>
C10H22O6

$$$$
