LM6
  -OEChem-02242320033D

 23 23  0     0  0  0  0  0  0999 V2000
   -0.9920   -0.2470    0.2590 N   0  0  0  0  0  0  0  0  0  0  0  0
    2.2220    0.2540    0.4980 N   0  0  0  0  0  0  0  0  0  0  0  0
   -0.6010    1.7870   -0.4310 C   0  0  0  0  0  0  0  0  0  0  0  0
   -0.0570    0.5560   -0.2900 C   0  0  0  0  0  0  0  0  0  0  0  0
    1.3440    0.1550   -0.6750 C   0  0  0  0  0  0  0  0  0  0  0  0
    3.5990   -0.1300    0.1600 C   0  0  0  0  0  0  0  0  0  0  0  0
   -1.2340   -2.5200   -0.6090 C   0  0  0  0  0  0  0  0  0  0  0  0
   -0.8250   -1.6640    0.5910 C   0  0  0  0  0  0  0  0  0  0  0  0
   -2.1500    0.5150    0.4610 N   0  0  0  0  0  0  0  0  0  0  0  0
   -1.9150    1.7340    0.0470 C   0  0  0  0  0  0  0  0  0  0  0  0
    2.1930    1.1820    0.8940 H   0  0  0  0  0  0  0  0  0  0  0  0
   -0.1090    2.6560   -0.8420 H   0  0  0  0  0  0  0  0  0  0  0  0
    1.7090    0.8170   -1.4590 H   0  0  0  0  0  0  0  0  0  0  0  0
    1.3400   -0.8730   -1.0400 H   0  0  0  0  0  0  0  0  0  0  0  0
    4.2270   -0.0470    1.0460 H   0  0  0  0  0  0  0  0  0  0  0  0
    3.6100   -1.1600   -0.1990 H   0  0  0  0  0  0  0  0  0  0  0  0
    3.9790    0.5300   -0.6190 H   0  0  0  0  0  0  0  0  0  0  0  0
   -1.1100   -3.5750   -0.3630 H   0  0  0  0  0  0  0  0  0  0  0  0
   -2.2780   -2.3260   -0.8550 H   0  0  0  0  0  0  0  0  0  0  0  0
   -0.6070   -2.2710   -1.4650 H   0  0  0  0  0  0  0  0  0  0  0  0
    0.2190   -1.8590    0.8360 H   0  0  0  0  0  0  0  0  0  0  0  0
   -1.4520   -1.9140    1.4460 H   0  0  0  0  0  0  0  0  0  0  0  0
   -2.6140    2.5570    0.0710 H   0  0  0  0  0  0  0  0  0  0  0  0
  7  8  1  0  0  0  0
  1  8  1  0  0  0  0
  1  9  1  0  0  0  0
  1  4  1  0  0  0  0
  9 10  2  0  0  0  0
  4  5  1  0  0  0  0
  2  5  1  0  0  0  0
  3  4  2  0  0  0  0
  2  6  1  0  0  0  0
  3 10  1  0  0  0  0
  2 11  1  0  0  0  0
  3 12  1  0  0  0  0
  5 13  1  0  0  0  0
  5 14  1  0  0  0  0
  6 15  1  0  0  0  0
  6 16  1  0  0  0  0
  6 17  1  0  0  0  0
  7 18  1  0  0  0  0
  7 19  1  0  0  0  0
  7 20  1  0  0  0  0
  8 21  1  0  0  0  0
  8 22  1  0  0  0  0
 10 23  1  0  0  0  0
M  END
> <OPENEYE_ISO_SMILES>
CCn1c(ccn1)CNC

> <OPENEYE_INCHI>
InChI=1S/C7H13N3/c1-3-10-7(6-8-2)4-5-9-10/h4-5,8H,3,6H2,1-2H3

> <OPENEYE_INCHIKEY>
IPBXAQNEXLMXRW-UHFFFAOYSA-N

> <FORMULA>
C7H13N3

$$$$
