W2J
  -OEChem-02242320043D

 24 24  0     1  0  0  0  0  0999 V2000
    1.7180   -0.7110    0.3520 C   0  0  2  0  0  0  0  0  0  0  0  0
    1.9290   -1.1210   -1.1070 C   0  0  0  0  0  0  0  0  0  0  0  0
    0.2900   -1.0600    0.7810 C   0  0  0  0  0  0  0  0  0  0  0  0
   -3.0550    0.0890   -0.4830 O   0  0  0  0  0  0  0  0  0  0  0  0
   -2.1280   -0.5620    0.3880 C   0  0  0  0  0  0  0  0  0  0  0  0
   -0.7000   -0.2640   -0.0740 C   0  0  1  0  0  0  0  0  0  0  0  0
    1.9340    0.7970    0.4960 C   0  0  0  0  0  0  0  0  0  0  0  0
    0.9640    1.5140   -0.3410 N   0  0  0  0  0  0  0  0  0  0  0  0
   -0.4130    1.2310    0.0820 C   0  0  0  0  0  0  0  0  0  0  0  0
    2.4280   -1.2430    0.9860 H   0  0  0  0  0  0  0  0  0  0  0  0
    1.2190   -0.5890   -1.7400 H   0  0  0  0  0  0  0  0  0  0  0  0
    2.9450   -0.8730   -1.4110 H   0  0  0  0  0  0  0  0  0  0  0  0
    1.7710   -2.1950   -1.2090 H   0  0  0  0  0  0  0  0  0  0  0  0
    0.1180   -2.1270    0.6390 H   0  0  0  0  0  0  0  0  0  0  0  0
    0.1530   -0.8060    1.8320 H   0  0  0  0  0  0  0  0  0  0  0  0
   -3.9820   -0.0560   -0.2490 H   0  0  0  0  0  0  0  0  0  0  0  0
   -2.2650   -0.1940    1.4050 H   0  0  0  0  0  0  0  0  0  0  0  0
   -2.3000   -1.6380    0.3640 H   0  0  0  0  0  0  0  0  0  0  0  0
   -0.5890   -0.5490   -1.1200 H   0  0  0  0  0  0  0  0  0  0  0  0
    1.7980    1.0860    1.5380 H   0  0  0  0  0  0  0  0  0  0  0  0
    2.9460    1.0510    0.1780 H   0  0  0  0  0  0  0  0  0  0  0  0
    1.1470    2.5060   -0.3380 H   0  0  0  0  0  0  0  0  0  0  0  0
   -1.1070    1.8000   -0.5360 H   0  0  0  0  0  0  0  0  0  0  0  0
   -0.5390    1.5180    1.1260 H   0  0  0  0  0  0  0  0  0  0  0  0
  7  8  1  0  0  0  0
  1  7  1  0  0  0  0
  4  5  1  0  0  0  0
  8  9  1  0  0  0  0
  6  9  1  0  0  0  0
  5  6  1  0  0  0  0
  3  6  1  0  0  0  0
  1  2  1  0  0  0  0
  1  3  1  0  0  0  0
  1 10  1  0  0  0  0
  2 11  1  0  0  0  0
  2 12  1  0  0  0  0
  2 13  1  0  0  0  0
  3 14  1  0  0  0  0
  3 15  1  0  0  0  0
  4 16  1  0  0  0  0
  5 17  1  0  0  0  0
  5 18  1  0  0  0  0
  6 19  1  0  0  0  0
  7 20  1  0  0  0  0
  7 21  1  0  0  0  0
  8 22  1  0  0  0  0
  9 23  1  0  0  0  0
  9 24  1  0  0  0  0
M  END
> <OPENEYE_ISO_SMILES>
C[C@@H]1C[C@H](CNC1)CO

> <OPENEYE_INCHI>
InChI=1S/C7H15NO/c1-6-2-7(5-9)4-8-3-6/h6-9H,2-5H2,1H3/t6-,7-/m1/s1

> <OPENEYE_INCHIKEY>
SSKKCWRWVKPDIA-RNFRBKRXSA-N

> <FORMULA>
C7H15NO

$$$$
