@<TRIPOS>MOLECULE
/home/pku/3cl/gett_pdb/8E1Y/8E1Y_mol2/ligand/8E1Y_4WI.pdb
 68 70 0 0 0
SMALL
GASTEIGER

@<TRIPOS>ATOM
      1  C8        -4.7400  -26.0930  -16.8730 C.2   401  4WI401      0.2162
      2  C3        -3.1400  -24.9890  -21.2680 C.3   401  4WI401      0.0973
      3  C1        -4.2990  -28.0540  -22.0230 C.2   401  4WI401      0.2341
      4  C13       -5.6780  -30.4860  -20.5570 C.2   401  4WI401      0.2371
      5  C21       -5.7350  -33.8130  -19.8560 C.2   401  4WI401      0.3179
      6  C6        -6.7320  -26.2540  -18.1390 C.3   401  4WI401     -0.0262
      7  C7        -6.8790  -25.1900  -17.0530 C.3   401  4WI401      0.0123
      8  C10       -5.3870  -31.2860  -22.8910 C.3   401  4WI401      0.0192
      9  C5        -5.2240  -26.4120  -18.2790 C.3   401  4WI401      0.0387
     10  C9        -3.8950  -29.5330  -21.9960 C.3   401  4WI401      0.1058
     11  C11       -4.2850  -31.0510  -23.9000 C.3   401  4WI401     -0.0142
     12  C12       -3.3600  -29.9810  -23.3620 C.3   401  4WI401     -0.0037
     13  C18       -2.8460  -31.3870  -23.6030 C.3   401  4WI401     -0.0250
     14  C19       -2.5080  -32.2740  -22.4220 C.3   401  4WI401     -0.0592
     15  C20       -2.0000  -31.6960  -24.8200 C.3   401  4WI401     -0.0592
     16  C16       -8.1770  -30.4890  -18.5990 C.3   401  4WI401     -0.0579
     17  C17       -8.6690  -30.2530  -21.0430 C.3   401  4WI401     -0.0579
     18  C23       -8.9950  -32.4560  -19.9040 C.3   401  4WI401     -0.0579
     19  C4        -4.4780  -25.5220  -19.2750 C.3   401  4WI401     -0.0214
     20  C2        -4.2960  -25.9140  -20.7500 C.3   401  4WI401      0.0471
     21  C14       -6.6850  -31.6260  -20.3480 C.3   401  4WI401      0.1047
     22  C22       -6.1410  -35.0600  -19.0600 C.3   401  4WI401      0.4694
     23  C15       -8.1180  -31.1960  -19.9630 C.3   401  4WI401     -0.0108
     24  N5        -3.3470  -23.6830  -21.9510 N.3   401  4WI401     -0.2441
     25  N2        -5.6570  -25.3540  -16.2710 N.am  401  4WI401     -0.3151
     26  N3        -5.0340  -30.4320  -21.7430 N.am  401  4WI401     -0.2878
     27  N1        -3.9760  -27.3320  -20.9280 N.am  401  4WI401     -0.3090
     28  N4        -6.1800  -32.6300  -19.4210 N.am  401  4WI401     -0.2962
     29  O1        -3.6600  -26.4480  -16.3730 O.2   401  4WI401     -0.2755
     30  O2        -4.8870  -27.5810  -22.9980 O.2   401  4WI401     -0.2738
     31  O3        -5.4820  -29.6360  -19.6910 O.2   401  4WI401     -0.2735
     32  O4        -5.0920  -33.9630  -20.8760 O.2   401  4WI401     -0.2660
     33  F1        -5.2450  -36.0340  -19.1760 F     401  4WI401     -0.1620
     34  F2        -7.2990  -35.5570  -19.4770 F     401  4WI401     -0.1620
     35  F3        -6.2730  -34.8010  -17.7670 F     401  4WI401     -0.1620
     36  H5        -7.1380  -25.9560  -18.9780 H     401  4WI401      0.0288
     37  H6        -7.1500  -27.0940  -17.8610 H     401  4WI401      0.0288
     38  H7        -7.6770  -25.3480  -16.5020 H     401  4WI401      0.0462
     39  H8        -6.9350  -24.2900  -17.4440 H     401  4WI401      0.0462
     40  H11       -5.4180  -32.2280  -22.6310 H     401  4WI401      0.0468
     41  H12       -6.2580  -31.0290  -23.2570 H     401  4WI401      0.0468
     42  H4        -5.0120  -27.3600  -18.4790 H     401  4WI401      0.0395
     43  H10       -3.2060  -29.6690  -21.3020 H     401  4WI401      0.0600
     44  H13       -4.5390  -31.0210  -24.8730 H     401  4WI401      0.0325
     45  H14       -3.0200  -29.2630  -24.0260 H     401  4WI401      0.0332
     46  H23       -2.6880  -31.8050  -21.5980 H     401  4WI401      0.0235
     47  H24       -1.5680  -32.5160  -22.4530 H     401  4WI401      0.0235
     48  H25       -3.0470  -33.0790  -22.4560 H     401  4WI401      0.0235
     49  H26       -1.8880  -30.8920  -25.3500 H     401  4WI401      0.0235
     50  H27       -2.4370  -32.3750  -25.3570 H     401  4WI401      0.0235
     51  H28       -1.1290  -32.0190  -24.5410 H     401  4WI401      0.0235
     52  H17       -7.2850  -30.4410  -18.2160 H     401  4WI401      0.0236
     53  H19       -8.5260  -29.5880  -18.7090 H     401  4WI401      0.0236
     54  H18       -8.7570  -30.9840  -17.9950 H     401  4WI401      0.0236
     55  H20       -8.0040  -30.1330  -21.7430 H     401  4WI401      0.0236
     56  H21       -8.8810  -29.3890  -20.6510 H     401  4WI401      0.0236
     57  H22       -9.4750  -30.6340  -21.4330 H     401  4WI401      0.0236
     58  H29       -8.4620  -33.2380  -20.1280 H     401  4WI401      0.0236
     59  H30       -9.7260  -32.3790  -20.5410 H     401  4WI401      0.0236
     60  H31       -9.3610  -32.5640  -19.0100 H     401  4WI401      0.0236
     61  H2        -4.9180  -24.6460  -19.2650 H     401  4WI401      0.0291
     62  H3        -3.5790  -25.3760  -18.9060 H     401  4WI401      0.0291
     63  H32       -5.1340  -25.7020  -21.2480 H     401  4WI401      0.0518
     64  H15       -6.7890  -32.0880  -21.2140 H     401  4WI401      0.0600
     65  H36       -2.2080  -23.7370  -22.3180 H     401  4WI401      0.1414
     66  H9        -5.5390  -25.0120  -15.4770 H     401  4WI401      0.1487
     67  H1        -3.5490  -27.7340  -20.2860 H     401  4WI401      0.1491
     68  H16       -6.1560  -32.4680  -18.5630 H     401  4WI401      0.1497
@<TRIPOS>BOND
     1    50    15    1
     2    49    15    1
     3    44    11    1
     4    15    51    1
     5    15    13    1
     6    45    12    1
     7    11    13    1
     8    11    12    1
     9    11     8    1
    10    13    12    1
    11    13    14    1
    12    12    10    1
    13    41     8    1
    14    30     3    2
    15     8    40    1
    16     8    26    1
    17    48    14    1
    18    47    14    1
    19    14    46    1
    20    65    24    1
    21     3    10    1
    22     3    27   am
    23    10    26    1
    24    10    43    1
    25    24     2    1
    26    26     4   am
    27    55    17    1
    28    57    17    1
    29     2    20    1
    30    63    20    1
    31    64    21    1
    32    17    56    1
    33    17    23    1
    34    27    20    1
    35    27    67    1
    36    32     5    2
    37    20    19    1
    38     4    21    1
    39     4    31    2
    40    59    18    1
    41    21    23    1
    42    21    28    1
    43    58    18    1
    44    23    18    1
    45    23    16    1
    46    18    60    1
    47     5    28   am
    48     5    22    1
    49    34    22    1
    50    28    68    1
    51    19    61    1
    52    19    62    1
    53    19     9    1
    54    33    22    1
    55    22    35    1
    56    36     6    1
    57    53    16    1
    58    16    52    1
    59    16    54    1
    60    42     9    1
    61     9     6    1
    62     9     1    1
    63     6    37    1
    64     6     7    1
    65    39     7    1
    66     7    38    1
    67     7    25    1
    68     1    29    2
    69     1    25   am
    70    25    66    1
