V46
  -OEChem-02242320043D

 64 65  0     1  0  0  0  0  0999 V2000
    5.9220   -1.0890    0.2110 C   0  0  0  0  0  0  0  0  0  0  0  0
   -0.0190    0.1260    0.5960 C   0  0  1  0  0  0  0  0  0  0  0  0
   -0.1280    1.5440    1.1610 C   0  0  0  0  0  0  0  0  0  0  0  0
    0.8850    1.7210    2.2930 C   0  0  0  0  0  0  0  0  0  0  0  0
    0.8630    3.1730    2.7740 C   0  0  0  0  0  0  0  0  0  0  0  0
    0.5190    0.7940    3.4540 C   0  0  0  0  0  0  0  0  0  0  0  0
   -1.0970   -0.0890   -0.4340 C   0  0  0  0  0  0  0  0  0  0  0  0
    6.7500    0.0040    0.0350 C   0  0  0  0  0  0  0  0  0  0  0  0
   -3.4430   -0.1860   -1.0880 C   0  0  2  0  0  0  0  0  0  0  0  0
   -3.7170    1.1290   -1.8210 C   0  0  1  0  0  0  0  0  0  0  0  0
   -4.7220   -0.6610   -0.3960 C   0  0  0  0  0  0  0  0  0  0  0  0
   -4.4850   -2.0410    0.2220 C   0  0  2  0  0  0  0  0  0  0  0  0
   -4.2240   -3.0910   -0.8820 C   0  0  0  0  0  0  0  0  0  0  0  0
   -4.9290   -4.3380   -0.3050 C   0  0  0  0  0  0  0  0  0  0  0  0
   -5.7360   -2.5310    0.9160 C   0  0  0  0  0  0  0  0  0  0  0  0
    7.9090   -0.1200   -0.7100 C   0  0  0  0  0  0  0  0  0  0  0  0
    8.2390   -1.3370   -1.2790 C   0  0  0  0  0  0  0  0  0  0  0  0
    7.4100   -2.4290   -1.1020 C   0  0  0  0  0  0  0  0  0  0  0  0
    6.2550   -2.3070   -0.3530 C   0  0  0  0  0  0  0  0  0  0  0  0
    4.6590   -0.9550    1.0220 C   0  0  0  0  0  0  0  0  0  0  0  0
    2.3550   -0.4080    0.7250 C   0  0  0  0  0  0  0  0  0  0  0  0
    8.9480    1.2530   -0.9320 Cl  0  0  0  0  0  0  0  0  0  0  0  0
    1.2950   -0.0520   -0.0270 N   0  0  0  0  0  0  0  0  0  0  0  0
   -2.3940    0.0230   -0.0860 N   0  0  0  0  0  0  0  0  0  0  0  0
   -5.9650   -3.8190    0.5970 N   0  0  0  0  0  0  0  0  0  0  0  0
    2.2210   -0.5820    1.9200 O   0  0  0  0  0  0  0  0  0  0  0  0
   -0.7980   -0.3640   -1.5770 O   0  0  0  0  0  0  0  0  0  0  0  0
   -4.8180    0.9550   -2.7150 O   0  0  0  0  0  0  0  0  0  0  0  0
   -6.4310   -1.8620    1.6510 O   0  0  0  0  0  0  0  0  0  0  0  0
    3.5630   -0.5710    0.1510 O   0  0  0  0  0  0  0  0  0  0  0  0
   -0.1380   -0.5970    1.4030 H   0  0  0  0  0  0  0  0  0  0  0  0
    0.0790    2.2660    0.3710 H   0  0  0  0  0  0  0  0  0  0  0  0
   -1.1350    1.7050    1.5450 H   0  0  0  0  0  0  0  0  0  0  0  0
    1.8820    1.4740    1.9310 H   0  0  0  0  0  0  0  0  0  0  0  0
   -0.1350    3.4210    3.1370 H   0  0  0  0  0  0  0  0  0  0  0  0
    1.5840    3.3000    3.5810 H   0  0  0  0  0  0  0  0  0  0  0  0
    1.1230    3.8340    1.9470 H   0  0  0  0  0  0  0  0  0  0  0  0
    0.5350   -0.2410    3.1120 H   0  0  0  0  0  0  0  0  0  0  0  0
    1.2410    0.9200    4.2610 H   0  0  0  0  0  0  0  0  0  0  0  0
   -0.4790    1.0410    3.8170 H   0  0  0  0  0  0  0  0  0  0  0  0
    6.4910    0.9540    0.4790 H   0  0  0  0  0  0  0  0  0  0  0  0
   -3.1150   -0.9400   -1.8040 H   0  0  0  0  0  0  0  0  0  0  0  0
   -2.8320    1.4210   -2.3860 H   0  0  0  0  0  0  0  0  0  0  0  0
   -4.9950    0.0460    0.3870 H   0  0  0  0  0  0  0  0  0  0  0  0
   -5.5280   -0.7240   -1.1270 H   0  0  0  0  0  0  0  0  0  0  0  0
   -3.6490   -2.0060    0.9210 H   0  0  0  0  0  0  0  0  0  0  0  0
   -4.6790   -2.7870   -1.8250 H   0  0  0  0  0  0  0  0  0  0  0  0
   -3.1550   -3.2690   -1.0070 H   0  0  0  0  0  0  0  0  0  0  0  0
   -5.3830   -4.9200   -1.1060 H   0  0  0  0  0  0  0  0  0  0  0  0
   -4.2180   -4.9510    0.2490 H   0  0  0  0  0  0  0  0  0  0  0  0
    9.1410   -1.4330   -1.8650 H   0  0  0  0  0  0  0  0  0  0  0  0
    7.6680   -3.3790   -1.5460 H   0  0  0  0  0  0  0  0  0  0  0  0
    5.6080   -3.1600   -0.2150 H   0  0  0  0  0  0  0  0  0  0  0  0
    4.4290   -1.9090    1.4970 H   0  0  0  0  0  0  0  0  0  0  0  0
    4.7990   -0.1920    1.7880 H   0  0  0  0  0  0  0  0  0  0  0  0
    1.4020    0.0880   -0.9810 H   0  0  0  0  0  0  0  0  0  0  0  0
   -2.6340    0.2430    0.8280 H   0  0  0  0  0  0  0  0  0  0  0  0
   -6.7160   -4.3390    0.9230 H   0  0  0  0  0  0  0  0  0  0  0  0
   -5.6410    0.6930   -2.2800 H   0  0  0  0  0  0  0  0  0  0  0  0
   -4.1180    2.4220   -0.6130 S   0  0  0  0  0  0  0  0  0  0  0  0
   -5.3140    2.0990    0.0840 O   0  0  0  0  0  0  0  0  0  0  0  0
   -2.9510    2.8310    0.0860 O   0  0  0  0  0  0  0  0  0  0  0  0
   -4.4910    3.6300   -1.4600 O   0  0  0  0  0  0  0  0  0  0  0  0
   -4.7340    4.4120   -0.9450 H   0  0  0  0  0  0  0  0  0  0  0  0
 15 25  1  0  0  0  0
 14 25  1  0  0  0  0
 15 29  2  0  0  0  0
 12 15  1  0  0  0  0
 13 14  1  0  0  0  0
 12 13  1  0  0  0  0
 10 28  1  0  0  0  0
 11 12  1  0  0  0  0
  9 11  1  0  0  0  0
 17 18  2  0  0  0  0
 16 17  1  0  0  0  0
  9 10  1  0  0  0  0
 18 19  1  0  0  0  0
  9 24  1  0  0  0  0
 16 22  1  0  0  0  0
  8 16  2  0  0  0  0
  1 19  2  0  0  0  0
  7 24  1  0  0  0  0
  1  8  1  0  0  0  0
  1 20  1  0  0  0  0
 21 26  2  0  0  0  0
  7 27  2  0  0  0  0
  2  7  1  0  0  0  0
 20 30  1  0  0  0  0
 21 30  1  0  0  0  0
 21 23  1  0  0  0  0
  2 23  1  0  0  0  0
  2  3  1  0  0  0  0
  3  4  1  0  0  0  0
  4  6  1  0  0  0  0
  4  5  1  0  0  0  0
  2 31  1  0  0  0  0
  3 32  1  0  0  0  0
  3 33  1  0  0  0  0
  4 34  1  0  0  0  0
  5 35  1  0  0  0  0
  5 36  1  0  0  0  0
  5 37  1  0  0  0  0
  6 38  1  0  0  0  0
  6 39  1  0  0  0  0
  6 40  1  0  0  0  0
  8 41  1  0  0  0  0
  9 42  1  0  0  0  0
 10 43  1  0  0  0  0
 11 44  1  0  0  0  0
 11 45  1  0  0  0  0
 12 46  1  0  0  0  0
 13 47  1  0  0  0  0
 13 48  1  0  0  0  0
 14 49  1  0  0  0  0
 14 50  1  0  0  0  0
 17 51  1  0  0  0  0
 18 52  1  0  0  0  0
 19 53  1  0  0  0  0
 20 54  1  0  0  0  0
 20 55  1  0  0  0  0
 23 56  1  0  0  0  0
 24 57  1  0  0  0  0
 25 58  1  0  0  0  0
 28 59  1  0  0  0  0
 10 60  1  0  0  0  0
 60 61  2  0  0  0  0
 60 62  2  0  0  0  0
 60 63  1  0  0  0  0
 63 64  1  0  0  0  0
M  END
> <OPENEYE_ISO_SMILES>
CC(C)C[C@@H](C(=O)N[C@@H](C[C@@H]1CCNC1=O)[C@@H](O)S(=O)(=O)O)NC(=O)OCc2cccc(c2)Cl

> <OPENEYE_INCHI>
InChI=1S/C21H30ClN3O8S/c1-12(2)8-16(25-21(29)33-11-13-4-3-5-15(22)9-13)19(27)24-17(20(28)34(30,31)32)10-14-6-7-23-18(14)26/h3-5,9,12,14,16-17,20,28H,6-8,10-11H2,1-2H3,(H,23,26)(H,24,27)(H,25,29)(H,30,31,32)/t14-,16-,17-,20-/m0/s1

> <OPENEYE_INCHIKEY>
YPCVDTHFTGPBJP-VERUCKTNSA-N

> <FORMULA>
C21H30ClN3O8S

$$$$
