Q3C
  -OEChem-02242320033D

 20 21  0     0  0  0  0  0  0999 V2000
    3.1450   -1.4530   -0.0000 O   0  0  0  0  0  0  0  0  0  0  0  0
    2.7950   -0.2900    0.0010 C   0  0  0  0  0  0  0  0  0  0  0  0
    3.7190    0.6910   -0.0030 O   0  0  0  0  0  0  0  0  0  0  0  0
    1.3580    0.0490   -0.0000 C   0  0  0  0  0  0  0  0  0  0  0  0
    0.4000   -0.9590    0.0040 C   0  0  0  0  0  0  0  0  0  0  0  0
    0.9470    1.3940    0.0010 C   0  0  0  0  0  0  0  0  0  0  0  0
   -0.3190    1.7220    0.0010 N   0  0  0  0  0  0  0  0  0  0  0  0
   -1.2860    0.7960   -0.0010 C   0  0  0  0  0  0  0  0  0  0  0  0
   -2.6400    1.1700   -0.0000 C   0  0  0  0  0  0  0  0  0  0  0  0
   -3.6070    0.2120   -0.0020 C   0  0  0  0  0  0  0  0  0  0  0  0
   -3.2780   -1.1420   -0.0030 C   0  0  0  0  0  0  0  0  0  0  0  0
   -1.9770   -1.5440   -0.0030 C   0  0  0  0  0  0  0  0  0  0  0  0
   -0.9530   -0.5820    0.0090 C   0  0  0  0  0  0  0  0  0  0  0  0
    4.6470    0.4210   -0.0070 H   0  0  0  0  0  0  0  0  0  0  0  0
    0.6880   -2.0000    0.0030 H   0  0  0  0  0  0  0  0  0  0  0  0
    1.6940    2.1740    0.0020 H   0  0  0  0  0  0  0  0  0  0  0  0
   -2.9130    2.2150    0.0010 H   0  0  0  0  0  0  0  0  0  0  0  0
   -4.6460    0.5060   -0.0010 H   0  0  0  0  0  0  0  0  0  0  0  0
   -4.0650   -1.8820   -0.0030 H   0  0  0  0  0  0  0  0  0  0  0  0
   -1.7340   -2.5960   -0.0040 H   0  0  0  0  0  0  0  0  0  0  0  0
 10 11  2  0  0  0  0
 11 12  1  0  0  0  0
  9 10  1  0  0  0  0
 12 13  2  0  0  0  0
  8  9  2  0  0  0  0
  8 13  1  0  0  0  0
  5 13  1  0  0  0  0
  7  8  1  0  0  0  0
  4  5  2  0  0  0  0
  6  7  2  0  0  0  0
  4  6  1  0  0  0  0
  2  4  1  0  0  0  0
  1  2  2  0  0  0  0
  2  3  1  0  0  0  0
  3 14  1  0  0  0  0
  5 15  1  0  0  0  0
  6 16  1  0  0  0  0
  9 17  1  0  0  0  0
 10 18  1  0  0  0  0
 11 19  1  0  0  0  0
 12 20  1  0  0  0  0
M  END
> <OPENEYE_ISO_SMILES>
c1ccc2c(c1)cc(cn2)C(=O)O

> <OPENEYE_INCHI>
InChI=1S/C10H7NO2/c12-10(13)8-5-7-3-1-2-4-9(7)11-6-8/h1-6H,(H,12,13)

> <OPENEYE_INCHIKEY>
DJXNJVFEFSWHLY-UHFFFAOYSA-N

> <FORMULA>
C10H7NO2

$$$$
