@<TRIPOS>MOLECULE
/home/pku/3cl/gett_pdb/8AYW/8AYW_mol2/ligand/8AYW_OG3.pdb
 20 20 0 0 0
SMALL
GASTEIGER

@<TRIPOS>ATOM
      1  C01       13.3070  -24.0530   16.2730 C.3   201  OG3201     -0.0457
      2  C02       13.4440  -24.5360   14.8410 C.3   201  OG3201      0.0275
      3  C04       14.6750  -25.3760   14.5030 C.ar  201  OG3201     -0.0309
      4  C05       15.9100  -25.1310   15.0780 C.ar  201  OG3201     -0.0557
      5  C06       17.0030  -25.9230   14.7510 C.ar  201  OG3201     -0.0431
      6  C07       16.8730  -26.9710   13.8480 C.ar  201  OG3201      0.0410
      7  C09       15.6310  -27.2210   13.2790 C.ar  201  OG3201     -0.0431
      8  C10       14.5400  -26.4290   13.6080 C.ar  201  OG3201     -0.0557
      9  N03       13.3620  -23.3260   14.0580 N.3   201  OG3201     -0.3238
     10 CL08       18.2930  -27.9940   13.4400 Cl    201  OG3201     -0.0835
     11 H012       12.5210  -23.3060   16.3290 H     201  OG3201      0.0248
     12 H011       14.2460  -23.6160   16.5990 H     201  OG3201      0.0248
     13 H013       13.0560  -24.8920   16.9160 H     201  OG3201      0.0248
     14 H021       12.6510  -25.2360   14.6060 H     201  OG3201      0.0505
     15 H051       16.0250  -24.3190   15.7860 H     201  OG3201      0.0621
     16 H061       17.9660  -25.7220   15.2040 H     201  OG3201      0.0632
     17 H091       15.5130  -28.0370   12.5770 H     201  OG3201      0.0632
     18 H101       13.5740  -26.6340   13.1630 H     201  OG3201      0.0621
     19  H1        12.8650  -22.6150   14.5590 H     201  OG3201      0.1188
     20 H032       12.8950  -23.5140   13.1970 H     201  OG3201      0.1188
@<TRIPOS>BOND
     1    17     7    1
     2    18     8    1
     3    20     9    1
     4     7     8   ar
     5     7     6   ar
     6    10     6    1
     7     8     3   ar
     8     6     5   ar
     9     9    19    1
    10     9     2    1
    11     3     2    1
    12     3     4   ar
    13    14     2    1
    14     5     4   ar
    15     5    16    1
    16     2     1    1
    17     4    15    1
    18     1    11    1
    19     1    12    1
    20     1    13    1
