QSL
  -OEChem-02242320033D

 29 31  0     0  0  0  0  0  0999 V2000
    2.8160   -0.4760   -0.0240 C   0  0  0  0  0  0  0  0  0  0  0  0
   -3.2090    0.9650   -0.7490 C   0  0  0  0  0  0  0  0  0  0  0  0
    2.9810   -1.9280   -0.0410 C   0  0  0  0  0  0  0  0  0  0  0  0
    4.2960   -2.1710    0.0860 C   0  0  0  0  0  0  0  0  0  0  0  0
    4.1080    0.0640    0.1180 C   0  0  0  0  0  0  0  0  0  0  0  0
    3.1920    2.1740    0.0760 C   0  0  0  0  0  0  0  0  0  0  0  0
   -2.5820   -0.3850    0.8190 C   0  0  0  0  0  0  0  0  0  0  0  0
   -1.9900    0.0690   -0.5170 C   0  0  0  0  0  0  0  0  0  0  0  0
   -0.6870    0.8550   -0.3620 C   0  0  0  0  0  0  0  0  0  0  0  0
    1.7260    0.4030   -0.1190 C   0  0  0  0  0  0  0  0  0  0  0  0
    0.4380   -0.0790   -0.2650 N   0  0  0  0  0  0  0  0  0  0  0  0
    1.9630    1.7100   -0.0640 N   0  0  0  0  0  0  0  0  0  0  0  0
    4.2430    1.3890    0.1610 N   0  0  0  0  0  0  0  0  0  0  0  0
    4.9800   -0.9880    0.1820 N   0  0  0  0  0  0  0  0  0  0  0  0
   -5.1650    0.3820    1.0250 O   0  0  0  0  0  0  0  0  0  0  0  0
   -4.6130   -1.3440   -0.6830 O   0  0  0  0  0  0  0  0  0  0  0  0
   -4.2520   -0.2340    0.1270 S   0  0  0  0  0  0  0  0  0  0  0  0
   -3.1380    1.9250   -0.2380 H   0  0  0  0  0  0  0  0  0  0  0  0
   -3.4690    1.0710   -1.8020 H   0  0  0  0  0  0  0  0  0  0  0  0
    2.1960   -2.6640   -0.1360 H   0  0  0  0  0  0  0  0  0  0  0  0
    4.7460   -3.1530    0.1090 H   0  0  0  0  0  0  0  0  0  0  0  0
    3.3400    3.2440    0.1160 H   0  0  0  0  0  0  0  0  0  0  0  0
   -2.3170   -1.4100    1.0790 H   0  0  0  0  0  0  0  0  0  0  0  0
   -2.3900    0.3150    1.6330 H   0  0  0  0  0  0  0  0  0  0  0  0
   -1.9070   -0.7380   -1.2450 H   0  0  0  0  0  0  0  0  0  0  0  0
   -0.5480    1.5020   -1.2280 H   0  0  0  0  0  0  0  0  0  0  0  0
   -0.7340    1.4620    0.5410 H   0  0  0  0  0  0  0  0  0  0  0  0
    0.2790   -1.0350   -0.3040 H   0  0  0  0  0  0  0  0  0  0  0  0
    5.9420   -0.9070    0.2810 H   0  0  0  0  0  0  0  0  0  0  0  0
 15 17  2  0  0  0  0
 16 17  2  0  0  0  0
  7 17  1  0  0  0  0
  7  8  1  0  0  0  0
  9 11  1  0  0  0  0
 10 11  1  0  0  0  0
 10 12  2  0  0  0  0
  6 12  1  0  0  0  0
  6 13  2  0  0  0  0
  5 13  1  0  0  0  0
  5 14  1  0  0  0  0
  4 14  1  0  0  0  0
  3  4  2  0  0  0  0
  1  3  1  0  0  0  0
  8  9  1  0  0  0  0
  2  8  1  0  0  0  0
  2 17  1  0  0  0  0
  1 10  1  0  0  0  0
  1  5  2  0  0  0  0
  2 18  1  0  0  0  0
  2 19  1  0  0  0  0
  3 20  1  0  0  0  0
  4 21  1  0  0  0  0
  6 22  1  0  0  0  0
  7 23  1  0  0  0  0
  7 24  1  0  0  0  0
  8 25  1  0  0  0  0
  9 26  1  0  0  0  0
  9 27  1  0  0  0  0
 11 28  1  0  0  0  0
 14 29  1  0  0  0  0
M  END
> <OPENEYE_ISO_SMILES>
c1c[nH]c2c1c(ncn2)NCC3CS(=O)(=O)C3

> <OPENEYE_INCHI>
InChI=1S/C10H12N4O2S/c15-17(16)4-7(5-17)3-12-10-8-1-2-11-9(8)13-6-14-10/h1-2,6-7H,3-5H2,(H2,11,12,13,14)

> <OPENEYE_INCHIKEY>
HQLHPXNPOGHZFK-UHFFFAOYSA-N

> <FORMULA>
C10H12N4O2S

$$$$
