GOV
  -OEChem-02242320023D

 30 31  0     1  0  0  0  0  0999 V2000
    0.3540   -0.7480   -0.5340 C   0  0  0  0  0  0  0  0  0  0  0  0
    0.9130   -1.7320    0.2590 C   0  0  0  0  0  0  0  0  0  0  0  0
    2.2140   -1.6040    0.7100 C   0  0  0  0  0  0  0  0  0  0  0  0
    2.9600   -0.4880    0.3690 C   0  0  0  0  0  0  0  0  0  0  0  0
    2.3950    0.5040   -0.4300 C   0  0  0  0  0  0  0  0  0  0  0  0
    4.3150    1.2870    0.4010 C   0  0  0  0  0  0  0  0  0  0  0  0
   -1.9800   -0.2800   -0.0420 N   0  0  0  0  0  0  0  0  0  0  0  0
   -5.7550    0.0130    0.1630 C   0  0  0  0  0  0  0  0  0  0  0  0
    3.3210    1.4890   -0.6220 O   0  0  0  0  0  0  0  0  0  0  0  0
   -4.2950    0.2460    0.5580 C   0  0  1  0  0  0  0  0  0  0  0  0
   -3.3760   -0.3990   -0.4810 C   0  0  0  0  0  0  0  0  0  0  0  0
   -1.0660   -0.8890   -1.0180 C   0  0  0  0  0  0  0  0  0  0  0  0
    1.0920    0.3690   -0.8790 C   0  0  0  0  0  0  0  0  0  0  0  0
    4.2390   -0.1240    0.6780 O   0  0  0  0  0  0  0  0  0  0  0  0
   -4.0360    1.6500    0.6170 O   0  0  0  0  0  0  0  0  0  0  0  0
    0.3330   -2.6030    0.5270 H   0  0  0  0  0  0  0  0  0  0  0  0
    2.6490   -2.3750    1.3300 H   0  0  0  0  0  0  0  0  0  0  0  0
    5.3050    1.5510    0.0300 H   0  0  0  0  0  0  0  0  0  0  0  0
   -1.8530   -0.6840    0.8740 H   0  0  0  0  0  0  0  0  0  0  0  0
   -5.9520   -1.0580    0.1180 H   0  0  0  0  0  0  0  0  0  0  0  0
   -6.4090    0.4730    0.9040 H   0  0  0  0  0  0  0  0  0  0  0  0
   -5.9420    0.4580   -0.8140 H   0  0  0  0  0  0  0  0  0  0  0  0
   -4.1070   -0.1990    1.5350 H   0  0  0  0  0  0  0  0  0  0  0  0
   -3.5000    0.1060   -1.4390 H   0  0  0  0  0  0  0  0  0  0  0  0
   -3.6340   -1.4520   -0.5900 H   0  0  0  0  0  0  0  0  0  0  0  0
   -1.1740   -0.3870   -1.9790 H   0  0  0  0  0  0  0  0  0  0  0  0
   -1.3080   -1.9460   -1.1300 H   0  0  0  0  0  0  0  0  0  0  0  0
    0.6520    1.1370   -1.4990 H   0  0  0  0  0  0  0  0  0  0  0  0
   -4.5840    2.1250    1.2570 H   0  0  0  0  0  0  0  0  0  0  0  0
    4.0720    1.8670    1.2910 H   0  0  0  0  0  0  0  0  0  0  0  0
  1 12  1  0  0  0  0
  7 12  1  0  0  0  0
  1  2  2  0  0  0  0
  1 13  1  0  0  0  0
  8 10  1  0  0  0  0
  2  3  1  0  0  0  0
 10 15  1  0  0  0  0
  5 13  2  0  0  0  0
  7 11  1  0  0  0  0
  3  4  2  0  0  0  0
 10 11  1  0  0  0  0
  4  5  1  0  0  0  0
  5  9  1  0  0  0  0
  4 14  1  0  0  0  0
  6  9  1  0  0  0  0
  6 14  1  0  0  0  0
  2 16  1  0  0  0  0
  3 17  1  0  0  0  0
  6 18  1  0  0  0  0
  7 19  1  0  0  0  0
  8 20  1  0  0  0  0
  8 21  1  0  0  0  0
  8 22  1  0  0  0  0
 10 23  1  0  0  0  0
 11 24  1  0  0  0  0
 11 25  1  0  0  0  0
 12 26  1  0  0  0  0
 12 27  1  0  0  0  0
 13 28  1  0  0  0  0
 15 29  1  0  0  0  0
  6 30  1  0  0  0  0
M  END
> <OPENEYE_ISO_SMILES>
C[C@@H](CNCc1ccc2c(c1)OCO2)O

> <OPENEYE_INCHI>
InChI=1S/C11H15NO3/c1-8(13)5-12-6-9-2-3-10-11(4-9)15-7-14-10/h2-4,8,12-13H,5-7H2,1H3/t8-/m0/s1

> <OPENEYE_INCHIKEY>
VIYPNISBCRFBOV-QMMMGPOBSA-N

> <FORMULA>
C11H15NO3

$$$$
