@<TRIPOS>MOLECULE
/home/pku/3cl/gett_pdb/8CZX/8CZX_mol2/ligand/8CZX_PJR.pdb
 34 36 0 0 0
SMALL
GASTEIGER

@<TRIPOS>ATOM
      1  C02       10.6210   24.0270   26.0730 C.2   401  PJR401      0.4215
      2  C04       11.8350   22.2130   27.2520 C.3   401  PJR401      0.1761
      3  C05       12.9360   21.9730   28.2980 C.3   401  PJR401      0.0312
      4  C06       14.3170   22.4910   27.8870 C.3   401  PJR401      0.0022
      5  C07       15.4110   22.1210   28.9110 C.3   401  PJR401      0.0001
      6  C08       14.7300   21.9060   26.5370 C.3   401  PJR401      0.0001
      7  C09       10.5190   21.5850   27.7930 C.2   401  PJR401      0.2614
      8  C11        8.7180   19.8830   27.6630 C.3   401  PJR401      0.1287
      9  C12        7.6760   19.7210   26.5160 C.3   401  PJR401      0.0335
     10  C13        7.3300   21.0780   25.9070 C.3   401  PJR401      0.0818
     11  C14        6.3270   20.8920   24.7500 C.2   401  PJR401      0.2410
     12  C16        5.4160   22.6380   26.0970 C.3   401  PJR401      0.1156
     13  C17        6.5500   21.9580   26.9190 C.3   401  PJR401      0.0326
     14  C19        8.9990   18.5040   28.3040 C.3   401  PJR401      0.2036
     15  C23        9.5830   25.8620   24.9030 C.3   401  PJR401      0.2100
     16  C24       10.1060   27.2410   24.4580 C.3   401  PJR401      0.0439
     17  C25        9.3740   28.4910   25.0050 C.3   401  PJR401      0.0037
     18  C26       10.0800   29.6780   25.6680 C.3   401  PJR401      0.0005
     19  C27       10.6770   30.8250   24.8420 C.3   401  PJR401      0.0056
     20  C28       11.2040   31.9840   25.6750 C.3   401  PJR401      0.0666
     21  C29       12.2330   31.5050   26.7520 C.3   401  PJR401      0.2639
     22  C30       11.6890   30.2880   27.5580 C.3   401  PJR401      0.0666
     23  C31       11.2060   29.1960   26.6120 C.3   401  PJR401      0.0056
     24  C34        9.2960   28.1320   23.5420 C.3   401  PJR401      0.0038
     25  F32       13.4340   31.2100   26.1940 F     401  PJR401     -0.2043
     26  F33       12.5430   32.5280   27.5940 F     401  PJR401     -0.2043
     27  N03       11.5830   23.6590   26.9840 N.am  401  PJR401     -0.1611
     28  N10        9.9510   20.4880   27.1630 N.am  401  PJR401     -0.2030
     29  N15        5.2810   21.7850   24.9220 N.am  401  PJR401     -0.2054
     30  O01       10.1130   23.2350   25.2980 O.2   401  PJR401     -0.2246
     31  O18        6.4120   20.1240   23.8210 O.2   401  PJR401     -0.2734
     32  O20        7.8020   17.9700   28.7650 O.3   401  PJR401     -0.2185
     33  O21        9.9600   22.0610   28.7800 O.2   401  PJR401     -0.2715
     34  O22       10.2500   25.3540   26.0800 O.3   401  PJR401     -0.4335
@<TRIPOS>BOND
     1    24    16    1
     2    24    17    1
     3    31    11    2
     4    16    15    1
     5    16    17    1
     6    11    29   am
     7    11    10    1
     8    19    18    1
     9    19    20    1
    10    15    34    1
    11    29    12    1
    12    17    18    1
    13    30     1    2
    14    18    23    1
    15    20    21    1
    16    10     9    1
    17    10    13    1
    18     1    34    1
    19     1    27   am
    20    12    13    1
    21    25    21    1
    22     9     8    1
    23     6     4    1
    24    23    22    1
    25    21    22    1
    26    21    26    1
    27    27     2    1
    28    28     8    1
    29    28     7   am
    30     2     7    1
    31     2     3    1
    32     8    14    1
    33     7    33    2
    34     4     3    1
    35     4     5    1
    36    14    32    1
