WYA
  -OEChem-02242320043D

 35 38  0     1  0  0  0  0  0999 V2000
   -1.7560    0.4240   -1.4430 C   0  0  0  0  0  0  0  0  0  0  0  0
   -3.8260    0.7140   -0.3030 C   0  0  0  0  0  0  0  0  0  0  0  0
   -5.4880   -0.1360    1.6290 C   0  0  0  0  0  0  0  0  0  0  0  0
   -3.5030   -0.4010    0.5100 C   0  0  0  0  0  0  0  0  0  0  0  0
   -0.0520   -2.5650    0.0490 C   0  0  0  0  0  0  0  0  0  0  0  0
    0.7100   -0.8900   -1.6990 C   0  0  0  0  0  0  0  0  0  0  0  0
    1.6470    0.0660   -1.0070 C   0  0  0  0  0  0  0  0  0  0  0  0
    3.3060    0.9200    0.1030 C   0  0  0  0  0  0  0  0  0  0  0  0
    4.5700    0.8830    0.8500 C   0  0  0  0  0  0  0  0  0  0  0  0
    4.5920   -1.4690    0.5510 C   0  0  0  0  0  0  0  0  0  0  0  0
    3.4520   -1.4470   -0.1300 C   0  0  0  0  0  0  0  0  0  0  0  0
   -1.4890   -0.6650   -0.5990 C   0  0  0  0  0  0  0  0  0  0  0  0
   -2.9180    1.1200   -1.3050 C   0  0  0  0  0  0  0  0  0  0  0  0
   -5.8090    0.9550    0.8200 C   0  0  0  0  0  0  0  0  0  0  0  0
   -0.3000   -1.3600   -0.7470 N   0  0  3  0  0  0  0  0  0  0  0  0
    1.4970    1.3660   -0.9120 N   0  0  0  0  0  0  0  0  0  0  0  0
    2.4800    1.8770   -0.2550 N   0  0  0  0  0  0  0  0  0  0  0  0
    5.1710   -0.3130    1.0400 N   0  0  0  0  0  0  0  0  0  0  0  0
    2.7850   -0.2600   -0.3680 N   0  0  0  0  0  0  0  0  0  0  0  0
   -4.9820    1.3560   -0.1200 N   0  0  0  0  0  0  0  0  0  0  0  0
   -4.3610   -0.7890    1.4600 N   0  0  0  0  0  0  0  0  0  0  0  0
   -2.3430   -1.0410    0.3300 N   0  0  0  0  0  0  0  0  0  0  0  0
    5.0650    1.9050    1.2890 O   0  0  0  0  0  0  0  0  0  0  0  0
   -1.0390    0.7130   -2.1970 H   0  0  0  0  0  0  0  0  0  0  0  0
   -6.1790   -0.4520    2.3970 H   0  0  0  0  0  0  0  0  0  0  0  0
   -0.4180   -3.4380   -0.4910 H   0  0  0  0  0  0  0  0  0  0  0  0
    1.0190   -2.6690    0.2260 H   0  0  0  0  0  0  0  0  0  0  0  0
   -0.5720   -2.4830    1.0030 H   0  0  0  0  0  0  0  0  0  0  0  0
    0.2180   -0.3810   -2.5280 H   0  0  0  0  0  0  0  0  0  0  0  0
    1.2750   -1.7410   -2.0790 H   0  0  0  0  0  0  0  0  0  0  0  0
    5.0880   -2.4140    0.7140 H   0  0  0  0  0  0  0  0  0  0  0  0
    3.0330   -2.3740   -0.4940 H   0  0  0  0  0  0  0  0  0  0  0  0
   -3.1400    1.9610   -1.9450 H   0  0  0  0  0  0  0  0  0  0  0  0
   -6.7440    1.4750    0.9680 H   0  0  0  0  0  0  0  0  0  0  0  0
    6.0040   -0.3620    1.5340 H   0  0  0  0  0  0  0  0  0  0  0  0
 14 20  2  0  0  0  0
  3 14  1  0  0  0  0
  2 20  1  0  0  0  0
  3 21  2  0  0  0  0
  2 13  2  0  0  0  0
  2  4  1  0  0  0  0
  4 21  1  0  0  0  0
  1 13  1  0  0  0  0
  4 22  2  0  0  0  0
  1 12  2  0  0  0  0
 12 22  1  0  0  0  0
 12 15  1  0  0  0  0
  6 15  1  0  0  0  0
  5 15  1  0  0  0  0
  6  7  1  0  0  0  0
 10 11  2  0  0  0  0
 11 19  1  0  0  0  0
  7 19  1  0  0  0  0
  7 16  2  0  0  0  0
 10 18  1  0  0  0  0
  8 19  1  0  0  0  0
 16 17  1  0  0  0  0
  9 18  1  0  0  0  0
  8 17  2  0  0  0  0
  8  9  1  0  0  0  0
  9 23  2  0  0  0  0
  1 24  1  0  0  0  0
  3 25  1  0  0  0  0
  5 26  1  0  0  0  0
  5 27  1  0  0  0  0
  5 28  1  0  0  0  0
  6 29  1  0  0  0  0
  6 30  1  0  0  0  0
 10 31  1  0  0  0  0
 11 32  1  0  0  0  0
 13 33  1  0  0  0  0
 14 34  1  0  0  0  0
 18 35  1  0  0  0  0
M  END
> <OPENEYE_ISO_SMILES>
CN(Cc1nnc2n1cc[nH]c2=O)c3ccc4c(n3)nccn4

> <OPENEYE_INCHI>
InChI=1S/C14H12N8O/c1-21(10-3-2-9-12(18-10)16-5-4-15-9)8-11-19-20-13-14(23)17-6-7-22(11)13/h2-7H,8H2,1H3,(H,17,23)

> <OPENEYE_INCHIKEY>
SJNJEBJSEDWSOJ-UHFFFAOYSA-N

> <FORMULA>
C14H12N8O

$$$$
