5OF
  -OEChem-02242320013D

 23 24  0     0  0  0  0  0  0999 V2000
    1.7410    0.2600    0.0030 C   0  0  0  0  0  0  0  0  0  0  0  0
    2.2220   -2.4720   -0.0040 C   0  0  0  0  0  0  0  0  0  0  0  0
    0.6610   -0.6540    0.0030 C   0  0  0  0  0  0  0  0  0  0  0  0
   -3.1230    0.9300   -0.0030 O   0  0  0  0  0  0  0  0  0  0  0  0
   -3.1590   -0.2780   -0.0010 C   0  0  0  0  0  0  0  0  0  0  0  0
   -4.3410   -0.9140   -0.0000 O   0  0  0  0  0  0  0  0  0  0  0  0
   -1.8770   -1.0690    0.0020 C   0  0  0  0  0  0  0  0  0  0  0  0
   -0.7030   -0.1250    0.0010 C   0  0  0  0  0  0  0  0  0  0  0  0
   -0.9020    1.1600   -0.0010 N   0  0  0  0  0  0  0  0  0  0  0  0
    0.1420    2.0840   -0.0010 N   0  0  0  0  0  0  0  0  0  0  0  0
    1.4350    1.6960    0.0010 C   0  0  0  0  0  0  0  0  0  0  0  0
    2.3300    2.5210    0.0010 O   0  0  0  0  0  0  0  0  0  0  0  0
    3.0510   -0.2150   -0.0010 C   0  0  0  0  0  0  0  0  0  0  0  0
    3.2810   -1.5730   -0.0040 C   0  0  0  0  0  0  0  0  0  0  0  0
    0.9190   -2.0250    0.0050 C   0  0  0  0  0  0  0  0  0  0  0  0
    2.4220   -3.5330   -0.0020 H   0  0  0  0  0  0  0  0  0  0  0  0
   -5.1360   -0.3630   -0.0020 H   0  0  0  0  0  0  0  0  0  0  0  0
   -1.8380   -1.6960    0.8930 H   0  0  0  0  0  0  0  0  0  0  0  0
   -1.8370   -1.6990   -0.8870 H   0  0  0  0  0  0  0  0  0  0  0  0
   -0.0660    3.0320   -0.0030 H   0  0  0  0  0  0  0  0  0  0  0  0
    3.8800    0.4770   -0.0010 H   0  0  0  0  0  0  0  0  0  0  0  0
    4.2960   -1.9440   -0.0070 H   0  0  0  0  0  0  0  0  0  0  0  0
    0.1020   -2.7320    0.0050 H   0  0  0  0  0  0  0  0  0  0  0  0
 11 12  2  0  0  0  0
  4  5  2  0  0  0  0
 10 11  1  0  0  0  0
  1 11  1  0  0  0  0
  9 10  1  0  0  0  0
  1 13  2  0  0  0  0
 13 14  1  0  0  0  0
  1  3  1  0  0  0  0
  8  9  2  0  0  0  0
  2 14  2  0  0  0  0
  3  8  1  0  0  0  0
  3 15  2  0  0  0  0
  7  8  1  0  0  0  0
  5  7  1  0  0  0  0
  5  6  1  0  0  0  0
  2 15  1  0  0  0  0
  2 16  1  0  0  0  0
  6 17  1  0  0  0  0
  7 18  1  0  0  0  0
  7 19  1  0  0  0  0
 10 20  1  0  0  0  0
 13 21  1  0  0  0  0
 14 22  1  0  0  0  0
 15 23  1  0  0  0  0
M  END
> <OPENEYE_ISO_SMILES>
c1ccc2c(c1)c(n[nH]c2=O)CC(=O)O

> <OPENEYE_INCHI>
InChI=1S/C10H8N2O3/c13-9(14)5-8-6-3-1-2-4-7(6)10(15)12-11-8/h1-4H,5H2,(H,12,15)(H,13,14)

> <OPENEYE_INCHIKEY>
ZEDQLIHBPGNGEC-UHFFFAOYSA-N

> <FORMULA>
C10H8N2O3

$$$$
