H3F
  -OEChem-02242320023D

 61 63  0     1  0  0  0  0  0999 V2000
    1.6070   -2.4420    1.0620 C   0  0  0  0  0  0  0  0  0  0  0  0
    0.1940   -2.2880    0.5620 C   0  0  0  0  0  0  0  0  0  0  0  0
   -0.5670   -3.3810    0.2700 C   0  0  0  0  0  0  0  0  0  0  0  0
   -1.8780   -3.2140   -0.1940 C   0  0  0  0  0  0  0  0  0  0  0  0
   -2.4030   -2.0200   -0.3590 N   0  0  0  0  0  0  0  0  0  0  0  0
   -1.7050   -0.9100   -0.0890 C   0  0  0  0  0  0  0  0  0  0  0  0
   -0.3760   -1.0120    0.3890 C   0  0  0  0  0  0  0  0  0  0  0  0
    0.3530    0.1560    0.6770 C   0  0  0  0  0  0  0  0  0  0  0  0
   -0.2360    1.3920    0.4960 C   0  0  0  0  0  0  0  0  0  0  0  0
   -1.5470    1.4930    0.0310 C   0  0  0  0  0  0  0  0  0  0  0  0
   -2.2780    0.3660   -0.2700 C   0  0  0  0  0  0  0  0  0  0  0  0
   -3.5910    0.4850   -0.7360 N   0  0  0  0  0  0  0  0  0  0  0  0
   -4.1840    1.8110   -0.9230 C   0  0  1  0  0  0  0  0  0  0  0  0
   -3.8020    2.3510   -2.3020 C   0  0  0  0  0  0  0  0  0  0  0  0
   -5.7070    1.7080   -0.8200 C   0  0  0  0  0  0  0  0  0  0  0  0
   -6.0960    1.2880    0.5990 C   0  0  0  0  0  0  0  0  0  0  0  0
   -7.6190    1.1840    0.7010 C   0  0  0  0  0  0  0  0  0  0  0  0
   -7.9910    0.7810    2.0640 N   0  0  0  0  0  0  0  0  0  0  0  0
    0.4690    2.5220    0.7740 O   0  0  0  0  0  0  0  0  0  0  0  0
   -0.1960    3.7700    0.5670 C   0  0  0  0  0  0  0  0  0  0  0  0
    1.6320    0.0690    1.1310 O   0  0  0  0  0  0  0  0  0  0  0  0
    2.6400    0.2430    0.2370 C   0  0  0  0  0  0  0  0  0  0  0  0
    2.3510    0.5030   -1.0950 C   0  0  0  0  0  0  0  0  0  0  0  0
    3.3770    0.6800   -2.0020 C   0  0  0  0  0  0  0  0  0  0  0  0
    4.6930    0.6000   -1.5830 C   0  0  0  0  0  0  0  0  0  0  0  0
    4.9840    0.3420   -0.2560 C   0  0  0  0  0  0  0  0  0  0  0  0
    3.9610    0.1690    0.6560 C   0  0  0  0  0  0  0  0  0  0  0  0
    6.4190    0.2540    0.1960 C   0  0  0  0  0  0  0  0  0  0  0  0
    7.2660    0.4680   -0.8960 F   0  0  0  0  0  0  0  0  0  0  0  0
    6.6610    1.2280    1.1710 F   0  0  0  0  0  0  0  0  0  0  0  0
    6.6620   -1.0150    0.7340 F   0  0  0  0  0  0  0  0  0  0  0  0
   -2.6230   -4.3110   -0.4800 O   0  0  0  0  0  0  0  0  0  0  0  0
   -3.9540   -4.0860   -0.9500 C   0  0  0  0  0  0  0  0  0  0  0  0
    1.6180   -2.3630    2.1490 H   0  0  0  0  0  0  0  0  0  0  0  0
    1.9940   -3.4170    0.7640 H   0  0  0  0  0  0  0  0  0  0  0  0
    2.2310   -1.6570    0.6340 H   0  0  0  0  0  0  0  0  0  0  0  0
   -0.1600   -4.3730    0.3950 H   0  0  0  0  0  0  0  0  0  0  0  0
   -1.9910    2.4680   -0.1030 H   0  0  0  0  0  0  0  0  0  0  0  0
   -4.1090   -0.3100   -0.9350 H   0  0  0  0  0  0  0  0  0  0  0  0
   -3.8130    2.4870   -0.1520 H   0  0  0  0  0  0  0  0  0  0  0  0
   -4.2430    3.3380   -2.4410 H   0  0  0  0  0  0  0  0  0  0  0  0
   -2.7170    2.4250   -2.3750 H   0  0  0  0  0  0  0  0  0  0  0  0
   -4.1730    1.6750   -3.0730 H   0  0  0  0  0  0  0  0  0  0  0  0
   -6.1530    2.6770   -1.0470 H   0  0  0  0  0  0  0  0  0  0  0  0
   -6.0700    0.9660   -1.5310 H   0  0  0  0  0  0  0  0  0  0  0  0
   -5.6500    0.3190    0.8250 H   0  0  0  0  0  0  0  0  0  0  0  0
   -5.7330    2.0300    1.3100 H   0  0  0  0  0  0  0  0  0  0  0  0
   -8.0650    2.1530    0.4750 H   0  0  0  0  0  0  0  0  0  0  0  0
   -7.9810    0.4420   -0.0100 H   0  0  0  0  0  0  0  0  0  0  0  0
   -7.6110    1.4190    2.7470 H   0  0  0  0  0  0  0  0  0  0  0  0
   -8.9930    0.7050    2.1570 H   0  0  0  0  0  0  0  0  0  0  0  0
   -1.0850    3.8170    1.1960 H   0  0  0  0  0  0  0  0  0  0  0  0
    0.4770    4.5870    0.8260 H   0  0  0  0  0  0  0  0  0  0  0  0
   -0.4870    3.8560   -0.4800 H   0  0  0  0  0  0  0  0  0  0  0  0
    1.3230    0.5650   -1.4230 H   0  0  0  0  0  0  0  0  0  0  0  0
    3.1530    0.8820   -3.0390 H   0  0  0  0  0  0  0  0  0  0  0  0
    5.4940    0.7400   -2.2940 H   0  0  0  0  0  0  0  0  0  0  0  0
    4.1890   -0.0330    1.6920 H   0  0  0  0  0  0  0  0  0  0  0  0
   -3.9210   -3.5060   -1.8720 H   0  0  0  0  0  0  0  0  0  0  0  0
   -4.4380   -5.0440   -1.1400 H   0  0  0  0  0  0  0  0  0  0  0  0
   -4.5180   -3.5370   -0.1950 H   0  0  0  0  0  0  0  0  0  0  0  0
  1  2  1  0  0  0  0
 28 31  1  0  0  0  0
  2  3  2  0  0  0  0
  3  4  1  0  0  0  0
 28 30  1  0  0  0  0
 32 33  1  0  0  0  0
  4 32  1  0  0  0  0
  2  7  1  0  0  0  0
 24 25  2  0  0  0  0
 25 26  1  0  0  0  0
 26 28  1  0  0  0  0
 28 29  1  0  0  0  0
 23 24  1  0  0  0  0
  4  5  2  0  0  0  0
 26 27  2  0  0  0  0
 22 23  2  0  0  0  0
 22 27  1  0  0  0  0
 21 22  1  0  0  0  0
  7  8  2  0  0  0  0
  6  7  1  0  0  0  0
  8 21  1  0  0  0  0
  5  6  1  0  0  0  0
  8  9  1  0  0  0  0
  6 11  2  0  0  0  0
  9 19  1  0  0  0  0
  9 10  2  0  0  0  0
 10 11  1  0  0  0  0
 11 12  1  0  0  0  0
 19 20  1  0  0  0  0
 12 13  1  0  0  0  0
 17 18  1  0  0  0  0
 13 15  1  0  0  0  0
 13 14  1  0  0  0  0
 15 16  1  0  0  0  0
 16 17  1  0  0  0  0
  1 34  1  0  0  0  0
  1 35  1  0  0  0  0
  1 36  1  0  0  0  0
  3 37  1  0  0  0  0
 10 38  1  0  0  0  0
 12 39  1  0  0  0  0
 13 40  1  0  0  0  0
 14 41  1  0  0  0  0
 14 42  1  0  0  0  0
 14 43  1  0  0  0  0
 15 44  1  0  0  0  0
 15 45  1  0  0  0  0
 16 46  1  0  0  0  0
 16 47  1  0  0  0  0
 17 48  1  0  0  0  0
 17 49  1  0  0  0  0
 18 50  1  0  0  0  0
 18 51  1  0  0  0  0
 20 52  1  0  0  0  0
 20 53  1  0  0  0  0
 20 54  1  0  0  0  0
 23 55  1  0  0  0  0
 24 56  1  0  0  0  0
 25 57  1  0  0  0  0
 27 58  1  0  0  0  0
 33 59  1  0  0  0  0
 33 60  1  0  0  0  0
 33 61  1  0  0  0  0
M  END
> <OPENEYE_ISO_SMILES>
Cc1cc(nc2c1c(c(cc2N[C@@H](C)CCCN)OC)Oc3cccc(c3)C(F)(F)F)OC

> <OPENEYE_INCHI>
InChI=1S/C24H28F3N3O3/c1-14-11-20(32-4)30-22-18(29-15(2)7-6-10-28)13-19(31-3)23(21(14)22)33-17-9-5-8-16(12-17)24(25,26)27/h5,8-9,11-13,15,29H,6-7,10,28H2,1-4H3/t15-/m0/s1

> <OPENEYE_INCHIKEY>
LBHLFPGPEGDCJG-HNNXBMFYSA-N

> <FORMULA>
C24H28F3N3O3

$$$$
