5ZE
  -OEChem-02242320013D

 18 18  0     0  0  0  0  0  0999 V2000
    2.5110    1.3950    0.0010 C   0  0  0  0  0  0  0  0  0  0  0  0
    1.1920    0.6670    0.0010 C   0  0  0  0  0  0  0  0  0  0  0  0
    0.0000    1.3750    0.0010 C   0  0  0  0  0  0  0  0  0  0  0  0
   -1.1910    0.6670    0.0000 C   0  0  0  0  0  0  0  0  0  0  0  0
   -2.5110    1.3950   -0.0010 C   0  0  0  0  0  0  0  0  0  0  0  0
   -1.1560   -0.6550    0.0010 N   0  0  0  0  0  0  0  0  0  0  0  0
   -0.0000   -1.3020    0.0010 C   0  0  0  0  0  0  0  0  0  0  0  0
   -0.0000   -2.6860    0.0010 N   0  0  0  0  0  0  0  0  0  0  0  0
    1.1560   -0.6550   -0.0040 N   0  0  0  0  0  0  0  0  0  0  0  0
    2.8270    1.5740   -1.0270 H   0  0  0  0  0  0  0  0  0  0  0  0
    2.4010    2.3480    0.5180 H   0  0  0  0  0  0  0  0  0  0  0  0
    3.2600    0.7890    0.5110 H   0  0  0  0  0  0  0  0  0  0  0  0
    0.0000    2.4550    0.0010 H   0  0  0  0  0  0  0  0  0  0  0  0
   -2.8290    1.5700   -1.0290 H   0  0  0  0  0  0  0  0  0  0  0  0
   -3.2590    0.7910    0.5130 H   0  0  0  0  0  0  0  0  0  0  0  0
   -2.4000    2.3500    0.5130 H   0  0  0  0  0  0  0  0  0  0  0  0
   -0.8400   -3.1710    0.0000 H   0  0  0  0  0  0  0  0  0  0  0  0
    0.8400   -3.1710    0.0010 H   0  0  0  0  0  0  0  0  0  0  0  0
  4  5  1  0  0  0  0
  3  4  2  0  0  0  0
  4  6  1  0  0  0  0
  2  3  1  0  0  0  0
  6  7  2  0  0  0  0
  1  2  1  0  0  0  0
  2  9  2  0  0  0  0
  7  9  1  0  0  0  0
  7  8  1  0  0  0  0
  1 10  1  0  0  0  0
  1 11  1  0  0  0  0
  1 12  1  0  0  0  0
  3 13  1  0  0  0  0
  5 14  1  0  0  0  0
  5 15  1  0  0  0  0
  5 16  1  0  0  0  0
  8 17  1  0  0  0  0
  8 18  1  0  0  0  0
M  END
> <OPENEYE_ISO_SMILES>
Cc1cc(nc(n1)N)C

> <OPENEYE_INCHI>
InChI=1S/C6H9N3/c1-4-3-5(2)9-6(7)8-4/h3H,1-2H3,(H2,7,8,9)

> <OPENEYE_INCHIKEY>
IDQNBVFPZMCDDN-UHFFFAOYSA-N

> <FORMULA>
C6H9N3

$$$$
