0LO
  -OEChem-02242320003D

 24 25  0     0  0  0  0  0  0999 V2000
    2.7710    1.0060   -0.0060 C   0  0  0  0  0  0  0  0  0  0  0  0
    4.0830    0.5780   -0.0010 C   0  0  0  0  0  0  0  0  0  0  0  0
    4.3710   -0.7750    0.0040 C   0  0  0  0  0  0  0  0  0  0  0  0
    3.3470   -1.7060    0.0040 C   0  0  0  0  0  0  0  0  0  0  0  0
    2.0320   -1.2880   -0.0000 C   0  0  0  0  0  0  0  0  0  0  0  0
    1.7360    0.0730   -0.0050 C   0  0  0  0  0  0  0  0  0  0  0  0
    0.3230    0.5280   -0.0030 C   0  0  0  0  0  0  0  0  0  0  0  0
   -0.7180   -0.3990   -0.0020 C   0  0  0  0  0  0  0  0  0  0  0  0
    0.0190    1.8890    0.0030 C   0  0  0  0  0  0  0  0  0  0  0  0
   -1.2320    2.3030    0.0050 N   0  0  0  0  0  0  0  0  0  0  0  0
   -2.2460    1.4620    0.0000 C   0  0  0  0  0  0  0  0  0  0  0  0
   -2.0320    0.0830   -0.0010 C   0  0  0  0  0  0  0  0  0  0  0  0
   -3.1740   -0.8540   -0.0000 C   0  0  0  0  0  0  0  0  0  0  0  0
   -4.4350   -0.3790    0.0010 O   0  0  0  0  0  0  0  0  0  0  0  0
   -2.9770   -2.0530   -0.0010 O   0  0  0  0  0  0  0  0  0  0  0  0
    2.5470    2.0630   -0.0050 H   0  0  0  0  0  0  0  0  0  0  0  0
    4.8860    1.3000   -0.0020 H   0  0  0  0  0  0  0  0  0  0  0  0
    5.3990   -1.1060    0.0070 H   0  0  0  0  0  0  0  0  0  0  0  0
    3.5780   -2.7610    0.0080 H   0  0  0  0  0  0  0  0  0  0  0  0
    1.2330   -2.0150   -0.0000 H   0  0  0  0  0  0  0  0  0  0  0  0
   -0.5170   -1.4600   -0.0030 H   0  0  0  0  0  0  0  0  0  0  0  0
    0.8190    2.6140    0.0070 H   0  0  0  0  0  0  0  0  0  0  0  0
   -3.2560    1.8450    0.0020 H   0  0  0  0  0  0  0  0  0  0  0  0
   -5.1490   -1.0300    0.0020 H   0  0  0  0  0  0  0  0  0  0  0  0
  3  4  2  0  0  0  0
  2  3  1  0  0  0  0
  4  5  1  0  0  0  0
  1  2  2  0  0  0  0
  5  6  2  0  0  0  0
  1  6  1  0  0  0  0
  6  7  1  0  0  0  0
  7  8  2  0  0  0  0
  7  9  1  0  0  0  0
  8 12  1  0  0  0  0
  9 10  2  0  0  0  0
 12 13  1  0  0  0  0
 11 12  2  0  0  0  0
 13 15  2  0  0  0  0
 10 11  1  0  0  0  0
 13 14  1  0  0  0  0
  1 16  1  0  0  0  0
  2 17  1  0  0  0  0
  3 18  1  0  0  0  0
  4 19  1  0  0  0  0
  5 20  1  0  0  0  0
  8 21  1  0  0  0  0
  9 22  1  0  0  0  0
 11 23  1  0  0  0  0
 14 24  1  0  0  0  0
M  END
> <OPENEYE_ISO_SMILES>
c1ccc(cc1)c2cc(cnc2)C(=O)O

> <OPENEYE_INCHI>
InChI=1S/C12H9NO2/c14-12(15)11-6-10(7-13-8-11)9-4-2-1-3-5-9/h1-8H,(H,14,15)

> <OPENEYE_INCHIKEY>
VKFXHYRIHRTEIV-UHFFFAOYSA-N

> <FORMULA>
C12H9NO2

$$$$
