PHQ
  -OEChem-02242320033D

 18 18  0     0  0  0  0  0  0999 V2000
   -2.2680   -0.2840    0.0010 C   0  0  0  0  0  0  0  0  0  0  0  0
   -2.5820   -1.4560   -0.0080 O   0  0  0  0  0  0  0  0  0  0  0  0
   -0.9700    0.0630    0.0030 O   0  0  0  0  0  0  0  0  0  0  0  0
    0.0010   -1.0170   -0.0060 C   0  0  0  0  0  0  0  0  0  0  0  0
    1.3930   -0.4400   -0.0030 C   0  0  0  0  0  0  0  0  0  0  0  0
    2.0330   -0.1840    1.1960 C   0  0  0  0  0  0  0  0  0  0  0  0
    3.3100    0.3450    1.1990 C   0  0  0  0  0  0  0  0  0  0  0  0
    3.9470    0.6180    0.0030 C   0  0  0  0  0  0  0  0  0  0  0  0
    3.3090    0.3620   -1.1950 C   0  0  0  0  0  0  0  0  0  0  0  0
    2.0330   -0.1710   -1.1990 C   0  0  0  0  0  0  0  0  0  0  0  0
   -3.4950    0.9430    0.0040 Cl  0  0  0  0  0  0  0  0  0  0  0  0
   -0.1370   -1.6370    0.8790 H   0  0  0  0  0  0  0  0  0  0  0  0
   -0.1390   -1.6230   -0.9010 H   0  0  0  0  0  0  0  0  0  0  0  0
    1.5340   -0.3980    2.1300 H   0  0  0  0  0  0  0  0  0  0  0  0
    3.8090    0.5450    2.1350 H   0  0  0  0  0  0  0  0  0  0  0  0
    4.9450    1.0320    0.0060 H   0  0  0  0  0  0  0  0  0  0  0  0
    3.8070    0.5760   -2.1290 H   0  0  0  0  0  0  0  0  0  0  0  0
    1.5350   -0.3750   -2.1350 H   0  0  0  0  0  0  0  0  0  0  0  0
  1  2  2  0  0  0  0
  1  3  1  0  0  0  0
  1 11  1  0  0  0  0
  3  4  1  0  0  0  0
  4  5  1  0  0  0  0
  4 12  1  0  0  0  0
  4 13  1  0  0  0  0
  5  6  2  0  0  0  0
  5 10  1  0  0  0  0
  6  7  1  0  0  0  0
  6 14  1  0  0  0  0
  7  8  2  0  0  0  0
  7 15  1  0  0  0  0
  8  9  1  0  0  0  0
  8 16  1  0  0  0  0
  9 10  2  0  0  0  0
  9 17  1  0  0  0  0
 10 18  1  0  0  0  0
M  END
> <OPENEYE_ISO_SMILES>
c1ccc(cc1)COC(=O)Cl

> <OPENEYE_INCHI>
InChI=1S/C8H7ClO2/c9-8(10)11-6-7-4-2-1-3-5-7/h1-5H,6H2

> <OPENEYE_INCHIKEY>
HSDAJNMJOMSNEV-UHFFFAOYSA-N

> <FORMULA>
C8H7ClO2

$$$$
