@<TRIPOS>MOLECULE
/home/pku/3cl/gett_pdb/6W2A/6W2A_mol2/ligand/6W2A_VDJ.pdb
 31 32 0 0 0
SMALL
GASTEIGER

@<TRIPOS>ATOM
      1  C11       20.3080   19.1060    0.3390 C.3   401  VDJ401      0.1761
      2  C12       21.3960   18.8300    1.3980 C.3   401  VDJ401      0.0312
      3  C13       22.7470   19.3960    1.0270 C.3   401  VDJ401      0.0022
      4  C14       23.7900   19.1660    2.1180 C.3   401  VDJ401      0.0001
      5  C15       23.2590   18.7920   -0.2740 C.3   401  VDJ401      0.0001
      6  C16       18.9800   18.5600    0.8350 C.2   401  VDJ401      0.2614
      7  C18       17.2410   16.7590    0.7070 C.3   401  VDJ401      0.1287
      8  C19       16.2830   16.6890   -0.4980 C.3   401  VDJ401      0.0335
      9  C20       15.8970   18.0980   -0.9670 C.3   401  VDJ401      0.0818
     10  C21       15.0200   18.0480   -2.2290 C.2   401  VDJ401      0.2410
     11  C23       14.0110   19.6350   -0.8090 C.3   401  VDJ401      0.1156
     12  C24       15.0700   18.8850    0.0380 C.3   401  VDJ401      0.0326
     13  C26       17.4650   15.3250    1.2540 C.3   401  VDJ401      0.2036
     14  C02       18.5160   27.1260   -2.7790 C.3   401  VDJ401      0.2639
     15  C04       19.5510   26.5440   -1.7910 C.3   401  VDJ401      0.0667
     16  C05       19.5120   25.0020   -1.8100 C.3   401  VDJ401      0.0093
     17  C06       18.0980   24.4210   -1.5750 C.3   401  VDJ401      0.0443
     18  C07       18.1400   22.8680   -1.6380 C.3   401  VDJ401      0.2100
     19  C09       19.2310   20.9960   -0.7320 C.2   401  VDJ401      0.4215
     20  C30       17.1740   25.0270   -2.5920 C.3   401  VDJ401      0.0093
     21  C31       17.1320   26.5420   -2.5020 C.3   401  VDJ401      0.0667
     22  F01       18.4960   28.4820   -2.7170 F     401  VDJ401     -0.2043
     23  F03       18.8690   26.8910   -4.0560 F     401  VDJ401     -0.2043
     24  N10       20.1800   20.5150    0.1250 N.am  401  VDJ401     -0.1611
     25  N17       18.5100   17.3870    0.3250 N.am  401  VDJ401     -0.2030
     26  N22       13.9720   18.9130   -2.0880 N.am  401  VDJ401     -0.2054
     27  O08       18.9850   22.3240   -0.6510 O.3   401  VDJ401     -0.4335
     28  O25       15.1730   17.3640   -3.2330 O.2   401  VDJ401     -0.2734
     29  O27       18.3040   15.4930    2.3600 O.3   401  VDJ401     -0.2185
     30  O28       18.3690   19.1900    1.6910 O.2   401  VDJ401     -0.2715
     31  O29       18.6240   20.2860   -1.5190 O.2   401  VDJ401     -0.2246
@<TRIPOS>BOND
     1    23    14    1
     2    28    10    2
     3    14    22    1
     4    14    21    1
     5    14    15    1
     6    20    21    1
     7    20    17    1
     8    10    26   am
     9    10     9    1
    10    26    11    1
    11    16    15    1
    12    16    17    1
    13    18    17    1
    14    18    27    1
    15    31    19    2
    16     9     8    1
    17     9    12    1
    18    11    12    1
    19    19    27    1
    20    19    24   am
    21     8     7    1
    22     5     3    1
    23    24     1    1
    24    25     7    1
    25    25     6   am
    26     1     6    1
    27     1     2    1
    28     7    13    1
    29     6    30    2
    30     3     2    1
    31     3     4    1
    32    13    29    1
