@<TRIPOS>MOLECULE
/home/pku/3cl/gett_pdb/7AHX/7AHX_mol2/ligand/7AHX_MRG.pdb
 22 24 0 0 0
SMALL
GASTEIGER

@<TRIPOS>ATOM
      1  P         -4.5500   18.9110  176.3160 P.3   817  MRG817      0.5411
      2  OP1       -5.4510   19.7910  175.5400 O.2   817  MRG817     -0.2272
      3  OP2       -3.3760   18.3040  175.6480 O.2   817  MRG817     -0.2272
      4  O5'       -4.0390   19.7240  177.5970 O.3   817  MRG817     -0.2722
      5  N9        -2.7370   18.8300  181.4470 N.ar  817  MRG817     -0.2713
      6  C4        -2.0650   18.3080  182.5300 C.ar  817  MRG817      0.1722
      7  N3        -2.1500   18.7500  183.8090 N.ar  817  MRG817     -0.1918
      8  C2        -1.3870   18.0390  184.6300 C.ar  817  MRG817      0.2606
      9  N1        -0.6040   16.9810  184.2280 N.ar  817  MRG817     -0.1709
     10  C6        -0.5050   16.5150  182.9180 C.ar  817  MRG817      0.3023
     11  O6         0.2300   15.5520  182.6550 O.2   817  MRG817     -0.2633
     12  C5        -1.3150   17.2650  182.0330 C.ar  817  MRG817      0.1748
     13  N7        -1.5040   17.1330  180.6630 N.ar  817  MRG817     -0.2173
     14  C8        -2.3490   18.0800  180.3640 C.ar  817  MRG817      0.1816
     15  N2        -1.3520   18.3420  185.9370 N.pl3 817  MRG817     -0.0859
     16  C2'       -2.9470   21.3150  181.3190 C.3   817  MRG817      0.0894
     17  C5'       -4.8320   20.7850  178.1180 C.3   817  MRG817      0.1851
     18  C4'       -4.4960   21.0700  179.5740 C.3   817  MRG817      0.1776
     19  O4'       -4.5380   19.8450  180.3420 O.3   817  MRG817     -0.3326
     20  C1'       -3.6570   19.9630  181.4500 C.3   817  MRG817      0.2095
     21  C3'       -3.1050   21.6100  179.8310 C.3   817  MRG817      0.1859
     22  O3'       -3.0600   23.0060  179.5700 O.3   817  MRG817     -0.2203
@<TRIPOS>BOND
     1     2     1    2
     2     3     1    2
     3     1     4    1
     4     4    17    1
     5    17    18    1
     6    22    21    1
     7    18    21    1
     8    18    19    1
     9    21    16    1
    10    19    20    1
    11    14    13   ar
    12    14     5   ar
    13    13    12   ar
    14    16    20    1
    15     5    20    1
    16     5     6   ar
    17    12     6   ar
    18    12    10   ar
    19     6     7   ar
    20    11    10    2
    21    10     9   ar
    22     7     8   ar
    23     9     8   ar
    24     8    15    1
