O3G
  -OEChem-02242320033D

 30 31  0     0  0  0  0  0  0999 V2000
    0.5350   -0.6850   -0.0020 N   0  0  0  0  0  0  0  0  0  0  0  0
   -1.8920   -0.8070   -0.0020 C   0  0  0  0  0  0  0  0  0  0  0  0
   -0.6120   -1.6030   -0.0010 C   0  0  0  0  0  0  0  0  0  0  0  0
    1.8030   -1.4270   -0.0010 C   0  0  0  0  0  0  0  0  0  0  0  0
    2.9540   -0.4540   -0.0030 C   0  0  0  0  0  0  0  0  0  0  0  0
    3.4820   -0.0050    1.1930 C   0  0  0  0  0  0  0  0  0  0  0  0
    5.0650    1.3310   -0.0060 C   0  0  0  0  0  0  0  0  0  0  0  0
   -2.4790   -0.4450   -1.2000 C   0  0  0  0  0  0  0  0  0  0  0  0
   -4.2470    0.6430   -0.0050 C   0  0  0  0  0  0  0  0  0  0  0  0
    4.5450    0.8730   -1.2030 C   0  0  0  0  0  0  0  0  0  0  0  0
    3.4860   -0.0150   -1.2010 C   0  0  0  0  0  0  0  0  0  0  0  0
   -3.6550    0.2800   -1.2030 C   0  0  0  0  0  0  0  0  0  0  0  0
   -3.6590    0.2790    1.1950 C   0  0  0  0  0  0  0  0  0  0  0  0
   -2.4820   -0.4450    1.1950 C   0  0  0  0  0  0  0  0  0  0  0  0
    4.5370    0.8870    1.1920 C   0  0  0  0  0  0  0  0  0  0  0  0
   -5.3970    1.3520   -0.0060 F   0  0  0  0  0  0  0  0  0  0  0  0
    0.4880   -0.0470    0.7780 H   0  0  0  0  0  0  0  0  0  0  0  0
   -0.5750   -2.2330   -0.8890 H   0  0  0  0  0  0  0  0  0  0  0  0
   -0.5750   -2.2290    0.8910 H   0  0  0  0  0  0  0  0  0  0  0  0
    1.8570   -2.0520    0.8900 H   0  0  0  0  0  0  0  0  0  0  0  0
    1.8570   -2.0550   -0.8900 H   0  0  0  0  0  0  0  0  0  0  0  0
    3.0690   -0.3520    2.1290 H   0  0  0  0  0  0  0  0  0  0  0  0
    5.8900    2.0280   -0.0080 H   0  0  0  0  0  0  0  0  0  0  0  0
   -2.0170   -0.7280   -2.1350 H   0  0  0  0  0  0  0  0  0  0  0  0
    4.9570    1.2200   -2.1390 H   0  0  0  0  0  0  0  0  0  0  0  0
    3.0730   -0.3650   -2.1350 H   0  0  0  0  0  0  0  0  0  0  0  0
   -4.1130    0.5640   -2.1390 H   0  0  0  0  0  0  0  0  0  0  0  0
   -4.1190    0.5620    2.1300 H   0  0  0  0  0  0  0  0  0  0  0  0
   -2.0230   -0.7290    2.1300 H   0  0  0  0  0  0  0  0  0  0  0  0
    4.9440    1.2450    2.1260 H   0  0  0  0  0  0  0  0  0  0  0  0
  7 10  2  0  0  0  0
 10 11  1  0  0  0  0
  7 15  1  0  0  0  0
  5 11  2  0  0  0  0
  6 15  2  0  0  0  0
  5  6  1  0  0  0  0
  4  5  1  0  0  0  0
  1  4  1  0  0  0  0
  1  3  1  0  0  0  0
  2  3  1  0  0  0  0
  2  8  2  0  0  0  0
  2 14  1  0  0  0  0
  8 12  1  0  0  0  0
 13 14  2  0  0  0  0
  9 12  2  0  0  0  0
  9 13  1  0  0  0  0
  9 16  1  0  0  0  0
  1 17  1  0  0  0  0
  3 18  1  0  0  0  0
  3 19  1  0  0  0  0
  4 20  1  0  0  0  0
  4 21  1  0  0  0  0
  6 22  1  0  0  0  0
  7 23  1  0  0  0  0
  8 24  1  0  0  0  0
 10 25  1  0  0  0  0
 11 26  1  0  0  0  0
 12 27  1  0  0  0  0
 13 28  1  0  0  0  0
 14 29  1  0  0  0  0
 15 30  1  0  0  0  0
M  END
> <OPENEYE_ISO_SMILES>
c1ccc(cc1)CNCc2ccc(cc2)F

> <OPENEYE_INCHI>
InChI=1S/C14H14FN/c15-14-8-6-13(7-9-14)11-16-10-12-4-2-1-3-5-12/h1-9,16H,10-11H2

> <OPENEYE_INCHIKEY>
SXZSRGKJZKOZRP-UHFFFAOYSA-N

> <FORMULA>
C14H14FN

$$$$
