3PH
  -OEChem-02242320003D

125124  0     1  0  0  0  0  0999 V2000
    1.8770   -3.5980   -2.8980 O   0  0  0  0  0  0  0  0  0  0  0  0
    0.7810   -4.6230   -2.3150 P   0  0  0  0  0  0  0  0  0  0  0  0
   -0.4950   -4.6610   -3.2970 O   0  0  0  0  0  0  0  0  0  0  0  0
    1.3720   -5.9770   -2.2220 O   0  0  0  0  0  0  0  0  0  0  0  0
    0.3170   -4.1380   -0.8510 O   0  0  0  0  0  0  0  0  0  0  0  0
   -0.5720   -4.8950   -0.0260 C   0  0  0  0  0  0  0  0  0  0  0  0
   -0.8020   -4.1510    1.2910 C   0  0  2  0  0  0  0  0  0  0  0  0
   -1.4930   -2.9020    1.0270 O   0  0  0  0  0  0  0  0  0  0  0  0
   -2.8350   -2.9320    1.0450 C   0  0  0  0  0  0  0  0  0  0  0  0
   -3.4130   -3.9680    1.2740 O   0  0  0  0  0  0  0  0  0  0  0  0
   -3.6200   -1.6730    0.7800 C   0  0  0  0  0  0  0  0  0  0  0  0
   -5.1170   -1.9800    0.8600 C   0  0  0  0  0  0  0  0  0  0  0  0
   -5.9150   -0.7030    0.5910 C   0  0  0  0  0  0  0  0  0  0  0  0
   -7.4120   -1.0100    0.6700 C   0  0  0  0  0  0  0  0  0  0  0  0
   -8.2090    0.2680    0.4010 C   0  0  0  0  0  0  0  0  0  0  0  0
   -9.7060   -0.0390    0.4810 C   0  0  0  0  0  0  0  0  0  0  0  0
  -10.5040    1.2380    0.2120 C   0  0  0  0  0  0  0  0  0  0  0  0
  -12.0000    0.9310    0.2910 C   0  0  0  0  0  0  0  0  0  0  0  0
  -12.7980    2.2090    0.0220 C   0  0  0  0  0  0  0  0  0  0  0  0
  -14.2950    1.9020    0.1020 C   0  0  0  0  0  0  0  0  0  0  0  0
  -15.0930    3.1790   -0.1670 C   0  0  0  0  0  0  0  0  0  0  0  0
  -16.5890    2.8720   -0.0880 C   0  0  0  0  0  0  0  0  0  0  0  0
  -17.3870    4.1500   -0.3570 C   0  0  0  0  0  0  0  0  0  0  0  0
  -18.8840    3.8430   -0.2770 C   0  0  0  0  0  0  0  0  0  0  0  0
  -19.6810    5.1210   -0.5460 C   0  0  0  0  0  0  0  0  0  0  0  0
  -21.1780    4.8130   -0.4670 C   0  0  0  0  0  0  0  0  0  0  0  0
  -21.9760    6.0910   -0.7360 C   0  0  0  0  0  0  0  0  0  0  0  0
    0.5460   -3.8580    1.9540 C   0  0  0  0  0  0  0  0  0  0  0  0
    1.3960   -3.1380    1.0230 O   0  0  0  0  0  0  0  0  0  0  0  0
    2.6230   -2.8030    1.4530 C   0  0  0  0  0  0  0  0  0  0  0  0
    2.9740   -3.1010    2.5700 O   0  0  0  0  0  0  0  0  0  0  0  0
    3.5620   -2.0540    0.5430 C   0  0  0  0  0  0  0  0  0  0  0  0
    4.8830   -1.7980    1.2710 C   0  0  0  0  0  0  0  0  0  0  0  0
    5.8360   -1.0380    0.3470 C   0  0  0  0  0  0  0  0  0  0  0  0
    7.1570   -0.7820    1.0750 C   0  0  0  0  0  0  0  0  0  0  0  0
    8.1110   -0.0220    0.1510 C   0  0  0  0  0  0  0  0  0  0  0  0
    9.4310    0.2340    0.8790 C   0  0  0  0  0  0  0  0  0  0  0  0
   10.3850    0.9940   -0.0450 C   0  0  0  0  0  0  0  0  0  0  0  0
   11.7060    1.2490    0.6840 C   0  0  0  0  0  0  0  0  0  0  0  0
   12.6590    2.0100   -0.2410 C   0  0  0  0  0  0  0  0  0  0  0  0
   13.9800    2.2650    0.4880 C   0  0  0  0  0  0  0  0  0  0  0  0
   14.9330    3.0250   -0.4360 C   0  0  0  0  0  0  0  0  0  0  0  0
   16.2540    3.2810    0.2920 C   0  0  0  0  0  0  0  0  0  0  0  0
   17.2070    4.0410   -0.6320 C   0  0  0  0  0  0  0  0  0  0  0  0
   18.5280    4.2970    0.0960 C   0  0  0  0  0  0  0  0  0  0  0  0
   19.4820    5.0570   -0.8280 C   0  0  0  0  0  0  0  0  0  0  0  0
   20.8020    5.3130   -0.1000 C   0  0  0  0  0  0  0  0  0  0  0  0
   21.7560    6.0730   -1.0240 C   0  0  0  0  0  0  0  0  0  0  0  0
    2.2020   -3.8280   -3.7790 H   0  0  0  0  0  0  0  0  0  0  0  0
   -1.5230   -5.0250   -0.5410 H   0  0  0  0  0  0  0  0  0  0  0  0
   -0.1330   -5.8710    0.1800 H   0  0  0  0  0  0  0  0  0  0  0  0
   -1.4070   -4.7680    1.9550 H   0  0  0  0  0  0  0  0  0  0  0  0
   -3.3640   -0.9210    1.5260 H   0  0  0  0  0  0  0  0  0  0  0  0
   -3.3790   -1.2970   -0.2140 H   0  0  0  0  0  0  0  0  0  0  0  0
   -5.3740   -2.7330    0.1140 H   0  0  0  0  0  0  0  0  0  0  0  0
   -5.3580   -2.3570    1.8540 H   0  0  0  0  0  0  0  0  0  0  0  0
   -5.6580    0.0500    1.3360 H   0  0  0  0  0  0  0  0  0  0  0  0
   -5.6740   -0.3270   -0.4030 H   0  0  0  0  0  0  0  0  0  0  0  0
   -7.6680   -1.7620   -0.0750 H   0  0  0  0  0  0  0  0  0  0  0  0
   -7.6530   -1.3860    1.6640 H   0  0  0  0  0  0  0  0  0  0  0  0
   -7.9520    1.0200    1.1470 H   0  0  0  0  0  0  0  0  0  0  0  0
   -7.9680    0.6440   -0.5930 H   0  0  0  0  0  0  0  0  0  0  0  0
   -9.9630   -0.7920   -0.2650 H   0  0  0  0  0  0  0  0  0  0  0  0
   -9.9470   -0.4160    1.4750 H   0  0  0  0  0  0  0  0  0  0  0  0
  -10.2470    1.9910    0.9570 H   0  0  0  0  0  0  0  0  0  0  0  0
  -10.2620    1.6150   -0.7830 H   0  0  0  0  0  0  0  0  0  0  0  0
  -12.2570    0.1790   -0.4540 H   0  0  0  0  0  0  0  0  0  0  0  0
  -12.2420    0.5550    1.2850 H   0  0  0  0  0  0  0  0  0  0  0  0
  -12.5410    2.9610    0.7680 H   0  0  0  0  0  0  0  0  0  0  0  0
  -12.5570    2.5850   -0.9720 H   0  0  0  0  0  0  0  0  0  0  0  0
  -14.5520    1.1490   -0.6440 H   0  0  0  0  0  0  0  0  0  0  0  0
  -14.5360    1.5250    1.0960 H   0  0  0  0  0  0  0  0  0  0  0  0
  -14.8360    3.9320    0.5780 H   0  0  0  0  0  0  0  0  0  0  0  0
  -14.8510    3.5560   -1.1610 H   0  0  0  0  0  0  0  0  0  0  0  0
  -16.8460    2.1200   -0.8330 H   0  0  0  0  0  0  0  0  0  0  0  0
  -16.8310    2.4960    0.9060 H   0  0  0  0  0  0  0  0  0  0  0  0
  -17.1300    4.9020    0.3890 H   0  0  0  0  0  0  0  0  0  0  0  0
  -17.1460    4.5260   -1.3510 H   0  0  0  0  0  0  0  0  0  0  0  0
  -19.1400    3.0900   -1.0230 H   0  0  0  0  0  0  0  0  0  0  0  0
  -19.1250    3.4670    0.7170 H   0  0  0  0  0  0  0  0  0  0  0  0
  -19.4250    5.8730    0.1990 H   0  0  0  0  0  0  0  0  0  0  0  0
  -19.4400    5.4970   -1.5410 H   0  0  0  0  0  0  0  0  0  0  0  0
  -21.4350    4.0610   -1.2120 H   0  0  0  0  0  0  0  0  0  0  0  0
  -21.4200    4.4370    0.5270 H   0  0  0  0  0  0  0  0  0  0  0  0
  -21.7190    6.8440    0.0100 H   0  0  0  0  0  0  0  0  0  0  0  0
  -21.7350    6.4670   -1.7300 H   0  0  0  0  0  0  0  0  0  0  0  0
  -23.0420    5.8720   -0.6790 H   0  0  0  0  0  0  0  0  0  0  0  0
    0.3880   -3.2520    2.8450 H   0  0  0  0  0  0  0  0  0  0  0  0
    1.0250   -4.7970    2.2320 H   0  0  0  0  0  0  0  0  0  0  0  0
    3.7500   -2.6470   -0.3530 H   0  0  0  0  0  0  0  0  0  0  0  0
    3.1120   -1.1020    0.2600 H   0  0  0  0  0  0  0  0  0  0  0  0
    4.6950   -1.2060    2.1660 H   0  0  0  0  0  0  0  0  0  0  0  0
    5.3320   -2.7500    1.5530 H   0  0  0  0  0  0  0  0  0  0  0  0
    6.0240   -1.6310   -0.5490 H   0  0  0  0  0  0  0  0  0  0  0  0
    5.3870   -0.0860    0.0650 H   0  0  0  0  0  0  0  0  0  0  0  0
    6.9700   -0.1900    1.9700 H   0  0  0  0  0  0  0  0  0  0  0  0
    7.6070   -1.7350    1.3570 H   0  0  0  0  0  0  0  0  0  0  0  0
    8.2980   -0.6150   -0.7440 H   0  0  0  0  0  0  0  0  0  0  0  0
    7.6610    0.9300   -0.1310 H   0  0  0  0  0  0  0  0  0  0  0  0
    9.2440    0.8260    1.7750 H   0  0  0  0  0  0  0  0  0  0  0  0
    9.8810   -0.7190    1.1610 H   0  0  0  0  0  0  0  0  0  0  0  0
   10.5720    0.4010   -0.9400 H   0  0  0  0  0  0  0  0  0  0  0  0
    9.9350    1.9460   -0.3270 H   0  0  0  0  0  0  0  0  0  0  0  0
   11.5180    1.8420    1.5790 H   0  0  0  0  0  0  0  0  0  0  0  0
   12.1550    0.2970    0.9660 H   0  0  0  0  0  0  0  0  0  0  0  0
   12.8470    1.4170   -1.1360 H   0  0  0  0  0  0  0  0  0  0  0  0
   12.2090    2.9620   -0.5230 H   0  0  0  0  0  0  0  0  0  0  0  0
   13.7920    2.8580    1.3830 H   0  0  0  0  0  0  0  0  0  0  0  0
   14.4290    1.3130    0.7700 H   0  0  0  0  0  0  0  0  0  0  0  0
   15.1210    2.4330   -1.3320 H   0  0  0  0  0  0  0  0  0  0  0  0
   14.4840    3.9770   -0.7190 H   0  0  0  0  0  0  0  0  0  0  0  0
   16.0660    3.8740    1.1870 H   0  0  0  0  0  0  0  0  0  0  0  0
   16.7040    2.3290    0.5740 H   0  0  0  0  0  0  0  0  0  0  0  0
   17.3950    3.4490   -1.5280 H   0  0  0  0  0  0  0  0  0  0  0  0
   16.7580    4.9930   -0.9140 H   0  0  0  0  0  0  0  0  0  0  0  0
   18.3410    4.8900    0.9920 H   0  0  0  0  0  0  0  0  0  0  0  0
   18.9780    3.3450    0.3780 H   0  0  0  0  0  0  0  0  0  0  0  0
   19.6690    4.4640   -1.7230 H   0  0  0  0  0  0  0  0  0  0  0  0
   19.0320    6.0090   -1.1100 H   0  0  0  0  0  0  0  0  0  0  0  0
   20.6150    5.9050    0.7960 H   0  0  0  0  0  0  0  0  0  0  0  0
   21.2520    4.3610    0.1830 H   0  0  0  0  0  0  0  0  0  0  0  0
   21.9440    5.4800   -1.9190 H   0  0  0  0  0  0  0  0  0  0  0  0
   21.3060    7.0250   -1.3060 H   0  0  0  0  0  0  0  0  0  0  0  0
   22.6970    6.2550   -0.5050 H   0  0  0  0  0  0  0  0  0  0  0  0
   -0.9330   -3.8060   -3.4050 H   0  0  0  0  0  0  0  0  0  0  0  0
  1  2  1  0  0  0  0
  1 49  1  0  0  0  0
  2  3  1  0  0  0  0
  2  4  2  0  0  0  0
  2  5  1  0  0  0  0
  5  6  1  0  0  0  0
  6  7  1  0  0  0  0
  6 50  1  0  0  0  0
  6 51  1  0  0  0  0
  7  8  1  0  0  0  0
  7 28  1  0  0  0  0
  7 52  1  0  0  0  0
  8  9  1  0  0  0  0
  9 10  2  0  0  0  0
  9 11  1  0  0  0  0
 11 12  1  0  0  0  0
 11 53  1  0  0  0  0
 11 54  1  0  0  0  0
 12 13  1  0  0  0  0
 12 55  1  0  0  0  0
 12 56  1  0  0  0  0
 13 14  1  0  0  0  0
 13 57  1  0  0  0  0
 13 58  1  0  0  0  0
 14 15  1  0  0  0  0
 14 59  1  0  0  0  0
 14 60  1  0  0  0  0
 15 16  1  0  0  0  0
 15 61  1  0  0  0  0
 15 62  1  0  0  0  0
 16 17  1  0  0  0  0
 16 63  1  0  0  0  0
 16 64  1  0  0  0  0
 17 18  1  0  0  0  0
 17 65  1  0  0  0  0
 17 66  1  0  0  0  0
 18 19  1  0  0  0  0
 18 67  1  0  0  0  0
 18 68  1  0  0  0  0
 19 20  1  0  0  0  0
 19 69  1  0  0  0  0
 19 70  1  0  0  0  0
 20 21  1  0  0  0  0
 20 71  1  0  0  0  0
 20 72  1  0  0  0  0
 21 22  1  0  0  0  0
 21 73  1  0  0  0  0
 21 74  1  0  0  0  0
 22 23  1  0  0  0  0
 22 75  1  0  0  0  0
 22 76  1  0  0  0  0
 23 24  1  0  0  0  0
 23 77  1  0  0  0  0
 23 78  1  0  0  0  0
 24 25  1  0  0  0  0
 24 79  1  0  0  0  0
 24 80  1  0  0  0  0
 25 26  1  0  0  0  0
 25 81  1  0  0  0  0
 25 82  1  0  0  0  0
 26 27  1  0  0  0  0
 26 83  1  0  0  0  0
 26 84  1  0  0  0  0
 27 85  1  0  0  0  0
 27 86  1  0  0  0  0
 27 87  1  0  0  0  0
 28 29  1  0  0  0  0
 28 88  1  0  0  0  0
 28 89  1  0  0  0  0
 29 30  1  0  0  0  0
 30 31  2  0  0  0  0
 30 32  1  0  0  0  0
 32 33  1  0  0  0  0
 32 90  1  0  0  0  0
 32 91  1  0  0  0  0
 33 34  1  0  0  0  0
 33 92  1  0  0  0  0
 33 93  1  0  0  0  0
 34 35  1  0  0  0  0
 34 94  1  0  0  0  0
 34 95  1  0  0  0  0
 35 36  1  0  0  0  0
 35 96  1  0  0  0  0
 35 97  1  0  0  0  0
 36 37  1  0  0  0  0
 36 98  1  0  0  0  0
 36 99  1  0  0  0  0
 37 38  1  0  0  0  0
 37100  1  0  0  0  0
 37101  1  0  0  0  0
 38 39  1  0  0  0  0
 38102  1  0  0  0  0
 38103  1  0  0  0  0
 39 40  1  0  0  0  0
 39104  1  0  0  0  0
 39105  1  0  0  0  0
 40 41  1  0  0  0  0
 40106  1  0  0  0  0
 40107  1  0  0  0  0
 41 42  1  0  0  0  0
 41108  1  0  0  0  0
 41109  1  0  0  0  0
 42 43  1  0  0  0  0
 42110  1  0  0  0  0
 42111  1  0  0  0  0
 43 44  1  0  0  0  0
 43112  1  0  0  0  0
 43113  1  0  0  0  0
 44 45  1  0  0  0  0
 44114  1  0  0  0  0
 44115  1  0  0  0  0
 45 46  1  0  0  0  0
 45116  1  0  0  0  0
 45117  1  0  0  0  0
 46 47  1  0  0  0  0
 46118  1  0  0  0  0
 46119  1  0  0  0  0
 47 48  1  0  0  0  0
 47120  1  0  0  0  0
 47121  1  0  0  0  0
 48122  1  0  0  0  0
 48123  1  0  0  0  0
 48124  1  0  0  0  0
  3125  1  0  0  0  0
M  END
> <OPENEYE_ISO_SMILES>
CCCCCCCCCCCCCCCCCC(=O)OC[C@H](COP(=O)(O)O)OC(=O)CCCCCCCCCCCCCCCCC

> <OPENEYE_INCHI>
InChI=1S/C39H77O8P/c1-3-5-7-9-11-13-15-17-19-21-23-25-27-29-31-33-38(40)45-35-37(36-46-48(42,43)44)47-39(41)34-32-30-28-26-24-22-20-18-16-14-12-10-8-6-4-2/h37H,3-36H2,1-2H3,(H2,42,43,44)/t37-/m1/s1

> <OPENEYE_INCHIKEY>
YFWHNAWEOZTIPI-DIPNUNPCSA-N

> <FORMULA>
C39H77O8P

$$$$
