@<TRIPOS>MOLECULE
/home/pku/3cl/gett_pdb/7L8I/7L8I_mol2/ligand/7L8I_AG7.pdb
 83 85 0 0 0
SMALL
GASTEIGER

@<TRIPOS>ATOM
      1  C01       32.3670   -6.1420    0.9250 C.2   401  AG7401      0.1544
      2  C02       33.3190   -7.3570    0.8470 C.3   401  AG7401      0.0191
      3  O03       31.1950   -6.2940    0.7740 O.2   401  AG7401     -0.2954
      4  C04       32.4800   -8.6350    0.9560 C.3   401  AG7401      0.0462
      5  C05       33.3440   -9.8490    0.6360 C.3   401  AG7401     -0.0162
      6  C06       32.5100  -11.1400    0.9380 C.ar  401  AG7401     -0.0465
      7  C07       32.9980  -12.1410    1.9910 C.ar  401  AG7401     -0.0558
      8  C08       32.1750  -13.4060    2.2860 C.ar  401  AG7401     -0.0262
      9  C09       30.8620  -13.6540    1.5320 C.ar  401  AG7401      0.1234
     10  C10       30.3780  -12.6620    0.4720 C.ar  401  AG7401     -0.0262
     11  C11       31.2030  -11.3970    0.1770 C.ar  401  AG7401     -0.0558
     12  N12       30.4680   -8.9040    2.6550 N.am  401  AG7401     -0.3119
     13  C13       29.9890   -8.9710    4.0580 C.3   401  AG7401      0.0274
     14  C14       28.8440   -8.0080    4.2830 C.3   401  AG7401     -0.0231
     15  C15       29.3670   -6.6550    4.5030 C.3   401  AG7401      0.0386
     16  C16       28.1660   -5.6910    4.9460 C.2   401  AG7401      0.2162
     17  N17       28.6900   -4.8700    5.8830 N.am  401  AG7401     -0.3151
     18  O18       27.0520   -5.7230    4.5330 O.2   401  AG7401     -0.2755
     19  C19       29.5790  -10.4180    4.3660 C.3   401  AG7401     -0.0075
     20  C20       30.8740  -11.2270    4.6390 C.3   401  AG7401      0.0498
     21  C21       30.6680  -12.4150    5.6050 C.2   401  AG7401      0.3074
     22  O22       31.7050  -13.3830    5.7140 O.3   401  AG7401     -0.4649
     23  O23       29.6700  -12.5150    6.2370 O.2   401  AG7401     -0.2508
     24  C47       31.9200   -8.7170    2.3970 C.2   401  AG7401      0.2171
     25  O48       32.6620   -8.6220    3.3180 O.2   401  AG7401     -0.2755
     26  C50       32.3090  -13.4410    7.0000 C.3   401  AG7401      0.0896
     27  C53       33.6780  -14.1420    6.9060 C.3   401  AG7401     -0.0306
     28  C57       32.8830   -4.7190    1.2120 C.3   401  AG7401      0.0841
     29  N58       32.3020   -3.8890    0.1760 N.am  401  AG7401     -0.3001
     30  C59       32.7660   -4.0610   -1.2060 C.2   401  AG7401      0.2663
     31  O60       33.6000   -4.8690   -1.4420 O.2   401  AG7401     -0.2684
     32  C78       32.3960   -4.3620    2.6060 C.3   401  AG7401     -0.0213
     33  C81       32.4470   -2.8620    2.8370 C.3   401  AG7401     -0.0606
     34  F1        30.1350  -14.7810    1.7920 F     401  AG7401     -0.2055
     35  C82       33.2790   -5.0740    3.6520 C.3   401  AG7401     -0.0606
     36  C83       30.2140   -5.2500    6.0820 C.3   401  AG7401      0.0123
     37  C84       30.3220   -6.5590    5.6800 C.3   401  AG7401     -0.0262
     38  C1        32.1620   -3.2220   -2.3620 C.ar  401  AG7401      0.1678
     39  C2        32.6130   -2.0190   -2.8670 C.ar  401  AG7401      0.0125
     40  C3        31.7780   -1.6500   -3.8870 C.ar  401  AG7401      0.1350
     41  O4        30.8360   -2.6020   -4.0160 O.2   401  AG7401     -0.3592
     42  N5        31.0820   -3.5820   -3.0630 N.ar  401  AG7401     -0.0734
     43  C4        31.8800   -0.3800   -4.7520 C.3   401  AG7401     -0.0037
     44  H2        33.9370   -7.3220    1.5520 H     401  AG7401      0.0350
     45  H3        33.7780   -7.3480    0.0270 H     401  AG7401      0.0350
     46  H27       31.7700   -8.6200    0.3420 H     401  AG7401      0.0401
     47  H28       34.1170   -9.8380    1.1700 H     401  AG7401      0.0321
     48  H29       33.5900   -9.8340   -0.2700 H     401  AG7401      0.0321
     49  H30       33.7900  -11.9830    2.4500 H     401  AG7401      0.0621
     50  H31       32.4720  -14.0190    2.9180 H     401  AG7401      0.0646
     51  H33       29.5890  -12.8220    0.0090 H     401  AG7401      0.0646
     52  H34       30.9100  -10.7900   -0.4620 H     401  AG7401      0.0621
     53  H49       29.9090   -8.9740    1.9950 H     401  AG7401      0.1490
     54  H91       30.6770   -8.7140    4.6430 H     401  AG7401      0.0501
     55  H35       28.3530   -8.2790    5.0370 H     401  AG7401      0.0290
     56  H36       28.2840   -8.0080    3.5290 H     401  AG7401      0.0290
     57  H94       29.8050   -6.3780    3.7200 H     401  AG7401      0.0395
     58  H39       28.2630   -4.2420    6.3040 H     401  AG7401      0.1487
     59 H191       28.9730  -10.4650    5.0970 H     401  AG7401      0.0327
     60  H41       31.1930  -11.5600    3.8210 H     401  AG7401      0.0381
     61  H42       31.5120  -10.6480    5.0120 H     401  AG7401      0.0381
     62  H51       31.7520  -13.9210    7.5840 H     401  AG7401      0.0694
     63  H52       32.4280  -12.5690    7.3270 H     401  AG7401      0.0694
     64  H53       33.5910  -14.9350    6.4120 H     401  AG7401      0.0262
     65  H54       34.2930  -13.5740    6.4800 H     401  AG7401      0.0262
     66  H56       33.9860  -14.3440    7.7700 H     401  AG7401      0.0262
     67  H77       33.8170   -4.6160    1.1980 H     401  AG7401      0.0580
     68  H61       31.6920   -3.3020    0.3690 H     401  AG7401      0.1498
     69  H79       31.5030   -4.6420    2.6890 H     401  AG7401      0.0317
     70  H82       32.1940   -2.6730    3.7220 H     401  AG7401      0.0233
     71  H84       33.3210   -2.5530    2.6890 H     401  AG7401      0.0233
     72  H85       31.8580   -2.4330    2.2450 H     401  AG7401      0.0233
     73  H86       33.2860   -4.5760    4.4470 H     401  AG7401      0.0233
     74  H87       32.9350   -5.9310    3.8210 H     401  AG7401      0.0233
     75  H88       34.1560   -5.1490    3.3220 H     401  AG7401      0.0233
     76  H89       30.4530   -5.1680    6.9870 H     401  AG7401      0.0462
     77  H90       30.7570   -4.7010    5.5470 H     401  AG7401      0.0462
     78  H92       31.2010   -6.7500    5.4090 H     401  AG7401      0.0288
     79  H93       30.0560   -7.1390    6.3700 H     401  AG7401      0.0288
     80  H8        33.3520   -1.5430   -2.5670 H     401  AG7401      0.0676
     81  H5        32.4980   -0.5220   -5.4450 H     401  AG7401      0.0309
     82  H6        32.1660    0.3390   -4.2200 H     401  AG7401      0.0309
     83  H7        31.0390   -0.1830   -5.1190 H     401  AG7401      0.0309
@<TRIPOS>BOND
     1    81    43    1
     2    83    43    1
     3    43    82    1
     4    43    40    1
     5    41    40   ar
     6    41    42   ar
     7    40    39   ar
     8    42    38   ar
     9    39    80    1
    10    39    38   ar
    11    38    30    1
    12    31    30    2
    13    30    29   am
    14    52    11    1
    15    48     5    1
    16    51    10    1
    17    45     2    1
    18    29    68    1
    19    29    28    1
    20    11    10   ar
    21    11     6   ar
    22    46     4    1
    23    10     9   ar
    24     5     6    1
    25     5     4    1
    26     5    47    1
    27     3     1    2
    28     2     1    1
    29     2     4    1
    30     2    44    1
    31     1    28    1
    32     6     7   ar
    33     4    24    1
    34    67    28    1
    35    28    32    1
    36     9    34    1
    37     9     8   ar
    38     7     8   ar
    39     7    49    1
    40    53    12    1
    41    72    33    1
    42     8    50    1
    43    24    12   am
    44    24    25    2
    45    32    69    1
    46    32    33    1
    47    32    35    1
    48    12    13    1
    49    71    33    1
    50    33    70    1
    51    75    35    1
    52    56    14    1
    53    35    74    1
    54    35    73    1
    55    57    15    1
    56    60    20    1
    57    13    14    1
    58    13    19    1
    59    13    54    1
    60    14    15    1
    61    14    55    1
    62    19    20    1
    63    19    59    1
    64    15    16    1
    65    15    37    1
    66    18    16    2
    67    20    61    1
    68    20    21    1
    69    16    17   am
    70    78    37    1
    71    77    36    1
    72    21    22    1
    73    21    23    2
    74    37    36    1
    75    37    79    1
    76    22    26    1
    77    17    36    1
    78    17    58    1
    79    36    76    1
    80    64    27    1
    81    65    27    1
    82    27    26    1
    83    27    66    1
    84    26    63    1
    85    26    62    1
