@<TRIPOS>MOLECULE
/home/pku/3cl/gett_pdb/4XBC/4XBC_mol2/ligand/4XBC_M40.pdb
 32 34 0 0 0
SMALL
GASTEIGER

@<TRIPOS>ATOM
      1  O01       36.4850   36.6370   15.1450 O.2   201  M40201     -0.2245
      2  C02       37.2480   37.5490   15.4830 C.2   201  M40201      0.4218
      3  O03       37.5930   37.7470   16.8030 O.3   201  M40201     -0.4285
      4  C04       37.0300   36.9930   17.8300 C.3   201  M40201      0.2368
      5  C05       37.9460   35.9660   18.4330 C.ar  201  M40201      0.0213
      6  C06       39.1560   36.3560   19.0240 C.ar  201  M40201     -0.0007
      7  C07       40.0040   35.3930   19.5710 C.ar  201  M40201     -0.0002
      8  C08       39.6510   34.0630   19.5220 C.ar  201  M40201     -0.0000
      9  C09       38.4410   33.6770   18.9300 C.ar  201  M40201     -0.0002
     10  C10       37.5880   34.6370   18.3950 C.ar  201  M40201     -0.0007
     11  N11       38.1070   38.2760   14.5460 N.am  201  M40201     -0.1611
     12  C12       37.8950   38.0070   13.1590 C.3   201  M40201      0.1762
     13  C13       38.5220   39.1230   12.3680 C.3   201  M40201      0.0312
     14  C14       37.9250   40.5440   12.4880 C.3   201  M40201      0.0022
     15  C15       38.7090   41.4730   11.6250 C.3   201  M40201      0.0001
     16  C16       38.1110   42.8590   11.5870 C.3   201  M40201      0.0000
     17  C17       36.6640   42.8320   11.2910 C.3   201  M40201      0.0000
     18  C18       35.8820   41.9180   12.1990 C.3   201  M40201      0.0000
     19  C19       36.4670   40.5510   12.1450 C.3   201  M40201      0.0001
     20  C20       38.5670   36.7510   12.7980 C.2   201  M40201      0.2649
     21  N21       37.9340   35.9550   11.8050 N.am  201  M40201     -0.1525
     22  C22       38.4750   34.6870   11.3510 C.3   201  M40201      0.3511
     23  C23       37.5920   33.5660   11.7980 C.3   201  M40201      0.0915
     24  C24       37.4380   33.4130   13.3590 C.3   201  M40201      0.0865
     25  C25       38.7580   33.1690   14.0350 C.3   201  M40201      0.0328
     26  C26       38.3710   32.3550   15.2710 C.3   201  M40201      0.1156
     27  N27       37.1100   31.6840   14.9250 N.am  201  M40201     -0.2054
     28  C28       36.5540   32.2970   13.7630 C.2   201  M40201      0.2412
     29  O29       35.5150   31.9390   13.2680 O.2   201  M40201     -0.2734
     30  O31       39.6120   35.5810    9.5210 O.3   201  M40201      0.0622
     31  O32       39.6140   36.4080   13.3190 O.2   201  M40201     -0.2714
     32  C30       38.6150   34.6840    9.8640 C.cat 201  M40201      0.5832
@<TRIPOS>UNITY_ATOM_ATTR
32 1
charge 1
@<TRIPOS>BOND
     1    30    32    1
     2    32    22    1
     3    17    16    1
     4    17    18    1
     5    22    23    1
     6    22    21    1
     7    16    15    1
     8    15    14    1
     9    23    24    1
    10    21    20   am
    11    19    18    1
    12    19    14    1
    13    13    14    1
    14    13    12    1
    15    20    12    1
    16    20    31    2
    17    12    11    1
    18    29    28    2
    19    24    28    1
    20    24    25    1
    21    28    27   am
    22    25    26    1
    23    11     2   am
    24    27    26    1
    25     1     2    2
    26     2     3    1
    27     3     4    1
    28     4     5    1
    29    10     5   ar
    30    10     9   ar
    31     5     6   ar
    32     9     8   ar
    33     6     7   ar
    34     8     7   ar
