@<TRIPOS>MOLECULE
/home/pku/3cl/gett_pdb/7T43/7T43_mol2/ligand/7T43_FN2.pdb
 30 32 0 0 0
SMALL
GASTEIGER

@<TRIPOS>ATOM
      1  C14        6.6510   21.0430   24.9940 C.2   501  FN2501      0.2410
      2  C13        7.6560   21.1530   26.1190 C.3   501  FN2501      0.0818
      3  C12        8.0470   19.7450   26.6230 C.3   501  FN2501      0.0335
      4  C11        9.0080   19.8150   27.8610 C.3   501  FN2501      0.1287
      5  C16        5.7130   22.6040   26.4750 C.3   501  FN2501      0.1156
      6  C17        6.8660   21.9270   27.2100 C.3   501  FN2501      0.0326
      7  C19        9.2610   18.3950   28.4750 C.3   501  FN2501      0.2036
      8  C23       10.5260   25.7080   24.9710 C.3   501  FN2501      0.1707
      9  C24        9.1060   26.3360   25.0720 C.3   501  FN2501      0.0465
     10  C25        9.7480   27.7270   25.1260 C.3   501  FN2501      0.0364
     11  C26        9.4540   28.5490   26.4290 C.3   501  FN2501      0.0736
     12  C28        9.9260   31.1250   26.0810 C.3   501  FN2501      0.0896
     13  C02       11.0280   23.8820   26.3010 C.2   501  FN2501      0.4214
     14  C04       12.1480   22.0460   27.4410 C.3   501  FN2501      0.1761
     15  C05       13.2770   21.7820   28.4610 C.3   501  FN2501      0.0312
     16  C06       14.6430   22.2990   27.9950 C.3   501  FN2501      0.0022
     17  C07       15.1240   21.5660   26.7540 C.3   501  FN2501      0.0001
     18  C08       15.7030   22.1570   29.1080 C.3   501  FN2501      0.0001
     19  C09       10.8430   21.5520   28.0610 C.2   501  FN2501      0.2614
     20  C37        9.3510   29.0690   24.3920 C.3   501  FN2501      0.0736
     21  C38       11.0350   27.1090   24.5590 C.3   501  FN2501      0.0465
     22  N03       12.0360   23.4930   27.1540 N.am  501  FN2501     -0.1611
     23  N10       10.2460   20.4480   27.4250 N.am  501  FN2501     -0.2030
     24  N15        5.5590   21.8760   25.2020 N.am  501  FN2501     -0.2054
     25  N27        9.6250   29.8140   25.6630 N.3   501  FN2501     -0.2714
     26  O01       10.3360   23.1690   25.6360 O.2   501  FN2501     -0.2246
     27  O18        6.7150   20.3450   23.9740 O.2   501  FN2501     -0.2734
     28  O20        8.0080   17.8950   28.9200 O.3   501  FN2501     -0.2185
     29  O21       10.3110   22.0520   29.0350 O.2   501  FN2501     -0.2715
     30  O22       10.8370   25.2570   26.2260 O.3   501  FN2501     -0.4373
@<TRIPOS>BOND
     1    27     1    2
     2    20    10    1
     3    20    25    1
     4    21     8    1
     5    21    10    1
     6     8     9    1
     7     8    30    1
     8     1    24   am
     9     1     2    1
    10     9    10    1
    11    10    11    1
    12    24     5    1
    13    26    13    2
    14    25    12    1
    15    25    11    1
    16     2     3    1
    17     2     6    1
    18    30    13    1
    19    13    22   am
    20     5     6    1
    21     3     4    1
    22    17    16    1
    23    22    14    1
    24    23     4    1
    25    23    19   am
    26    14    19    1
    27    14    15    1
    28     4     7    1
    29    16    15    1
    30    16    18    1
    31    19    29    2
    32     7    28    1
