@<TRIPOS>MOLECULE
/home/pku/3cl/gett_pdb/7LZW/7LZW_mol2/ligand/7LZW_YLM.pdb
 30 31 0 0 0
SMALL
GASTEIGER

@<TRIPOS>ATOM
      1  C11        9.0400   19.8520   27.3850 C.3   401  YLM401      0.1287
      2  C12        8.0210   19.8010   26.2030 C.3   401  YLM401      0.0339
      3  C13        7.6830   21.1710   25.5540 C.3   401  YLM401      0.0861
      4  C14        6.6870   21.0410   24.4070 C.2   401  YLM401      0.2453
      5  C16        5.6780   22.5890   25.8850 C.2   401  YLM401      0.0627
      6  C17        6.9290   22.0360   26.5720 C.3   401  YLM401      0.0534
      7  C27       12.3140   30.3030   24.5670 C.ar  401  YLM401      0.1401
      8  C02       10.9170   24.1050   25.5150 C.2   401  YLM401      0.4218
      9  C04       12.1420   22.2470   26.7200 C.3   401  YLM401      0.1761
     10  C05       13.3660   21.8490   27.5880 C.3   401  YLM401      0.0312
     11  C06       14.7630   22.3890   27.1950 C.3   401  YLM401      0.0022
     12  C07       15.3780   21.6010   26.0290 C.3   401  YLM401      0.0001
     13  C08       15.7320   22.3750   28.3980 C.3   401  YLM401      0.0001
     14  C09       10.7970   21.6770   27.2820 C.2   401  YLM401      0.2614
     15  C19        9.2840   18.4640   28.0050 C.3   401  YLM401      0.2036
     16  C23       11.9270   25.9680   24.3460 C.3   401  YLM401      0.2368
     17  C24       12.0440   27.5010   24.4060 C.ar  401  YLM401      0.0215
     18  C25       11.1260   28.3770   23.7890 C.ar  401  YLM401      0.0016
     19  C26       11.2420   29.7710   23.8530 C.ar  401  YLM401      0.0294
     20  C29       13.2460   29.4920   25.1990 C.ar  401  YLM401      0.0294
     21  C30       13.0920   28.1080   25.1050 C.ar  401  YLM401      0.0016
     22  F28       12.4490   31.6430   24.6470 F     401  YLM401     -0.2042
     23  N03       11.9290   23.6920   26.4170 N.am  401  YLM401     -0.1611
     24  N10       10.2960   20.4590   26.9070 N.am  401  YLM401     -0.2030
     25  N15        5.5790   21.8490   24.6060 N.am  401  YLM401     -0.1826
     26  O01       10.1230   23.3370   25.0090 O.2   401  YLM401     -0.2245
     27  O18        6.7870   20.3450   23.3820 O.2   401  YLM401     -0.2730
     28  O20       10.0880   18.6860   29.1490 O.3   401  YLM401     -0.2185
     29  O21       10.1790   22.3730   28.1060 O.2   401  YLM401     -0.2715
     30  O22       10.8670   25.4640   25.2060 O.3   401  YLM401     -0.4285
@<TRIPOS>BOND
     1    27     4    2
     2    18    19   ar
     3    18    17   ar
     4    19     7   ar
     5    16    17    1
     6    16    30    1
     7    17    21   ar
     8     4    25    1
     9     4     3    1
    10     7    22    1
    11     7    20   ar
    12    25     5    2
    13    26     8    2
    14    21    20   ar
    15    30     8    1
    16     8    23   am
    17     3     2    1
    18     3     6    1
    19     5     6    1
    20    12    11    1
    21     2     1    1
    22    23     9    1
    23     9    14    1
    24     9    10    1
    25    24    14   am
    26    24     1    1
    27    11    10    1
    28    11    13    1
    29    14    29    2
    30     1    15    1
    31    15    28    1
