8GW
  -OEChem-02242320013D

 95 98  0     1  0  0  0  0  0999 V2000
    4.9200    1.0570   -1.1640 C   0  0  0  0  0  0  0  0  0  0  0  0
   -3.3890   -0.3310    0.3280 C   0  0  2  0  0  0  0  0  0  0  0  0
   -2.1840   -0.2390   -0.5720 C   0  0  0  0  0  0  0  0  0  0  0  0
   -0.9340    1.2590    1.0570 C   0  0  0  0  0  0  0  0  0  0  0  0
    0.0880    0.8180   -1.0010 C   0  0  2  0  0  0  0  0  0  0  0  0
    1.2350   -0.0430   -0.5380 C   0  0  0  0  0  0  0  0  0  0  0  0
   -0.2900    2.5980    0.6370 C   0  0  2  0  0  0  0  0  0  0  0  0
    3.4840   -0.9360   -0.8220 C   0  0  1  0  0  0  0  0  0  0  0  0
   -0.7990    3.2740   -0.6380 C   0  0  0  0  0  0  0  0  0  0  0  0
    3.3160   -2.4200   -1.1530 C   0  0  0  0  0  0  0  0  0  0  0  0
    5.6220    4.4530    2.4780 C   0  0  0  0  0  0  0  0  0  0  0  0
    4.4480   -3.2190   -0.5030 C   0  0  2  0  0  0  0  0  0  0  0  0
    4.3150   -4.7210   -0.8440 C   0  0  0  0  0  0  0  0  0  0  0  0
    3.5230   -5.2510    0.3720 C   0  0  0  0  0  0  0  0  0  0  0  0
   -2.1400    2.7980   -1.2010 C   0  0  0  0  0  0  0  0  0  0  0  0
    4.3350   -3.1680    1.0040 C   0  0  0  0  0  0  0  0  0  0  0  0
   -0.5030    4.7650   -0.8120 C   0  0  0  0  0  0  0  0  0  0  0  0
   -3.0930   -2.8100    0.4140 C   0  0  0  0  0  0  0  0  0  0  0  0
   -8.1580    1.6890    0.0950 C   0  0  0  0  0  0  0  0  0  0  0  0
   -8.5160   -0.5920    1.0500 C   0  0  0  0  0  0  0  0  0  0  0  0
   -9.2880   -0.0740   -1.2690 C   0  0  0  0  0  0  0  0  0  0  0  0
    5.3040    2.8640    0.4240 C   0  0  0  0  0  0  0  0  0  0  0  0
   -3.2440   -1.5400    1.2540 C   0  0  0  0  0  0  0  0  0  0  0  0
   -2.0060   -1.3610    2.1350 C   0  0  0  0  0  0  0  0  0  0  0  0
   -4.4870   -1.6580    2.1380 C   0  0  0  0  0  0  0  0  0  0  0  0
    0.3840    2.3070   -0.7200 C   0  0  2  0  0  0  0  0  0  0  0  0
    5.5450    3.0280    1.9260 C   0  0  0  0  0  0  0  0  0  0  0  0
    6.8920    3.6060    2.3670 C   0  0  0  0  0  0  0  0  0  0  0  0
   -8.2010    0.1930   -0.2250 C   0  0  0  0  0  0  0  0  0  0  0  0
    4.7540   -0.4050   -1.4900 C   0  0  1  0  0  0  0  0  0  0  0  0
   -5.7920   -0.0920   -0.0020 C   0  0  0  0  0  0  0  0  0  0  0  0
   -4.5970   -0.4830   -0.4880 N   0  0  0  0  0  0  0  0  0  0  0  0
   -1.1320    0.5240   -0.2140 N   0  0  0  0  0  0  0  0  0  0  0  0
    2.3240   -0.1910   -1.3180 N   0  0  0  0  0  0  0  0  0  0  0  0
    5.1430    1.4430    0.1080 N   0  0  0  0  0  0  0  0  0  0  0  0
    3.8190   -4.3200    1.4680 N   0  0  0  0  0  0  0  0  0  0  0  0
   -6.9030   -0.2320   -0.7530 N   0  0  0  0  0  0  0  0  0  0  0  0
    4.6610   -2.2260    1.6940 O   0  0  0  0  0  0  0  0  0  0  0  0
   -5.8680    0.3870    1.1120 O   0  0  0  0  0  0  0  0  0  0  0  0
   -2.1600   -0.8520   -1.6180 O   0  0  0  0  0  0  0  0  0  0  0  0
    1.1780   -0.6020    0.5370 O   0  0  0  0  0  0  0  0  0  0  0  0
    4.8570    1.8860   -2.0470 O   0  0  0  0  0  0  0  0  0  0  0  0
    4.6520   -0.5690   -2.9060 O   0  0  0  0  0  0  0  0  0  0  0  0
   -3.4670    0.5770    0.9250 H   0  0  0  0  0  0  0  0  0  0  0  0
   -0.2640    0.7060    1.7160 H   0  0  0  0  0  0  0  0  0  0  0  0
   -1.8910    1.4350    1.5480 H   0  0  0  0  0  0  0  0  0  0  0  0
   -0.0990    0.6610   -2.0630 H   0  0  0  0  0  0  0  0  0  0  0  0
    0.2050    3.1850    1.4100 H   0  0  0  0  0  0  0  0  0  0  0  0
    3.5620   -0.8110    0.2580 H   0  0  0  0  0  0  0  0  0  0  0  0
    2.3580   -2.7720   -0.7700 H   0  0  0  0  0  0  0  0  0  0  0  0
    3.3480   -2.5580   -2.2340 H   0  0  0  0  0  0  0  0  0  0  0  0
    5.5010    5.2730    1.7710 H   0  0  0  0  0  0  0  0  0  0  0  0
    5.2200    4.6280    3.4760 H   0  0  0  0  0  0  0  0  0  0  0  0
    5.4170   -2.8370   -0.8260 H   0  0  0  0  0  0  0  0  0  0  0  0
    3.7540   -4.8640   -1.7670 H   0  0  0  0  0  0  0  0  0  0  0  0
    5.2950   -5.1950   -0.9080 H   0  0  0  0  0  0  0  0  0  0  0  0
    2.4550   -5.2510    0.1550 H   0  0  0  0  0  0  0  0  0  0  0  0
    3.8560   -6.2560    0.6300 H   0  0  0  0  0  0  0  0  0  0  0  0
   -2.8830    3.5870   -1.0860 H   0  0  0  0  0  0  0  0  0  0  0  0
   -2.0250    2.5580   -2.2580 H   0  0  0  0  0  0  0  0  0  0  0  0
   -2.4660    1.9100   -0.6600 H   0  0  0  0  0  0  0  0  0  0  0  0
    0.1830    5.0930   -0.0300 H   0  0  0  0  0  0  0  0  0  0  0  0
   -0.0480    4.9340   -1.7880 H   0  0  0  0  0  0  0  0  0  0  0  0
   -1.4320    5.3300   -0.7410 H   0  0  0  0  0  0  0  0  0  0  0  0
   -2.2070   -2.7260   -0.2150 H   0  0  0  0  0  0  0  0  0  0  0  0
   -2.9890   -3.6710    1.0740 H   0  0  0  0  0  0  0  0  0  0  0  0
   -3.9750   -2.9380   -0.2140 H   0  0  0  0  0  0  0  0  0  0  0  0
   -7.3830    1.8780    0.8380 H   0  0  0  0  0  0  0  0  0  0  0  0
   -7.9340    2.2480   -0.8140 H   0  0  0  0  0  0  0  0  0  0  0  0
   -9.1240    2.0050    0.4870 H   0  0  0  0  0  0  0  0  0  0  0  0
   -9.4820   -0.2760    1.4430 H   0  0  0  0  0  0  0  0  0  0  0  0
   -8.5470   -1.6580    0.8220 H   0  0  0  0  0  0  0  0  0  0  0  0
   -7.7410   -0.4020    1.7930 H   0  0  0  0  0  0  0  0  0  0  0  0
   -9.0640    0.4860   -2.1770 H   0  0  0  0  0  0  0  0  0  0  0  0
   -9.3190   -1.1390   -1.4970 H   0  0  0  0  0  0  0  0  0  0  0  0
  -10.2540    0.2430   -0.8760 H   0  0  0  0  0  0  0  0  0  0  0  0
    4.4010    3.4040    0.1400 H   0  0  0  0  0  0  0  0  0  0  0  0
    6.1560    3.2650   -0.1260 H   0  0  0  0  0  0  0  0  0  0  0  0
   -2.1320   -0.4790    2.7630 H   0  0  0  0  0  0  0  0  0  0  0  0
   -1.8800   -2.2410    2.7660 H   0  0  0  0  0  0  0  0  0  0  0  0
   -1.1260   -1.2370    1.5050 H   0  0  0  0  0  0  0  0  0  0  0  0
   -5.3690   -1.7850    1.5100 H   0  0  0  0  0  0  0  0  0  0  0  0
   -4.3840   -2.5190    2.7980 H   0  0  0  0  0  0  0  0  0  0  0  0
   -4.5950   -0.7530    2.7360 H   0  0  0  0  0  0  0  0  0  0  0  0
    1.3750    2.6890   -0.9640 H   0  0  0  0  0  0  0  0  0  0  0  0
    5.0920    2.2660    2.5610 H   0  0  0  0  0  0  0  0  0  0  0  0
    7.6060    3.8690    1.5870 H   0  0  0  0  0  0  0  0  0  0  0  0
    7.3250    3.2240    3.2920 H   0  0  0  0  0  0  0  0  0  0  0  0
    5.6170   -0.9600   -1.1210 H   0  0  0  0  0  0  0  0  0  0  0  0
   -4.5360   -0.8650   -1.3780 H   0  0  0  0  0  0  0  0  0  0  0  0
    2.3400    0.1960   -2.2070 H   0  0  0  0  0  0  0  0  0  0  0  0
    5.1980    0.7800    0.8130 H   0  0  0  0  0  0  0  0  0  0  0  0
    3.6630   -4.5120    2.4060 H   0  0  0  0  0  0  0  0  0  0  0  0
   -6.8420   -0.6140   -1.6420 H   0  0  0  0  0  0  0  0  0  0  0  0
    3.9050   -0.1020   -3.3030 H   0  0  0  0  0  0  0  0  0  0  0  0
 11 28  1  0  0  0  0
 11 27  1  0  0  0  0
 27 28  1  0  0  0  0
 23 24  1  0  0  0  0
 23 25  1  0  0  0  0
 22 27  1  0  0  0  0
  2 23  1  0  0  0  0
 18 23  1  0  0  0  0
  4  7  1  0  0  0  0
  4 33  1  0  0  0  0
 31 39  2  0  0  0  0
  7 26  1  0  0  0  0
  7  9  1  0  0  0  0
  6 41  2  0  0  0  0
 22 35  1  0  0  0  0
  2 32  1  0  0  0  0
  2  3  1  0  0  0  0
  3 33  1  0  0  0  0
  5 33  1  0  0  0  0
 31 32  1  0  0  0  0
 31 37  1  0  0  0  0
  9 26  1  0  0  0  0
  5 26  1  0  0  0  0
  9 17  1  0  0  0  0
 20 29  1  0  0  0  0
  1 35  1  0  0  0  0
  9 15  1  0  0  0  0
  3 40  2  0  0  0  0
  5  6  1  0  0  0  0
  6 34  1  0  0  0  0
 13 14  1  0  0  0  0
 12 13  1  0  0  0  0
 19 29  1  0  0  0  0
 14 36  1  0  0  0  0
 30 43  1  0  0  0  0
 29 37  1  0  0  0  0
 21 29  1  0  0  0  0
  1 30  1  0  0  0  0
  1 42  2  0  0  0  0
  8 34  1  0  0  0  0
  8 30  1  0  0  0  0
  8 10  1  0  0  0  0
 10 12  1  0  0  0  0
 12 16  1  0  0  0  0
 16 36  1  0  0  0  0
 16 38  2  0  0  0  0
  2 44  1  0  0  0  0
  4 45  1  0  0  0  0
  4 46  1  0  0  0  0
  5 47  1  0  0  0  0
  7 48  1  0  0  0  0
  8 49  1  0  0  0  0
 10 50  1  0  0  0  0
 10 51  1  0  0  0  0
 11 52  1  0  0  0  0
 11 53  1  0  0  0  0
 12 54  1  0  0  0  0
 13 55  1  0  0  0  0
 13 56  1  0  0  0  0
 14 57  1  0  0  0  0
 14 58  1  0  0  0  0
 15 59  1  0  0  0  0
 15 60  1  0  0  0  0
 15 61  1  0  0  0  0
 17 62  1  0  0  0  0
 17 63  1  0  0  0  0
 17 64  1  0  0  0  0
 18 65  1  0  0  0  0
 18 66  1  0  0  0  0
 18 67  1  0  0  0  0
 19 68  1  0  0  0  0
 19 69  1  0  0  0  0
 19 70  1  0  0  0  0
 20 71  1  0  0  0  0
 20 72  1  0  0  0  0
 20 73  1  0  0  0  0
 21 74  1  0  0  0  0
 21 75  1  0  0  0  0
 21 76  1  0  0  0  0
 22 77  1  0  0  0  0
 22 78  1  0  0  0  0
 24 79  1  0  0  0  0
 24 80  1  0  0  0  0
 24 81  1  0  0  0  0
 25 82  1  0  0  0  0
 25 83  1  0  0  0  0
 25 84  1  0  0  0  0
 26 85  1  0  0  0  0
 27 86  1  0  0  0  0
 28 87  1  0  0  0  0
 28 88  1  0  0  0  0
 30 89  1  0  0  0  0
 32 90  1  0  0  0  0
 34 91  1  0  0  0  0
 35 92  1  0  0  0  0
 36 93  1  0  0  0  0
 37 94  1  0  0  0  0
 43 95  1  0  0  0  0
M  END
> <OPENEYE_ISO_SMILES>
CC1([C@@H]2[C@H]1[C@H](N(C2)C(=O)[C@H](C(C)(C)C)NC(=O)NC(C)(C)C)C(=O)N[C@@H](C[C@@H]3CCNC3=O)[C@H](C(=O)NCC4CC4)O)C

> <OPENEYE_INCHI>
InChI=1S/C31H52N6O6/c1-29(2,3)23(35-28(43)36-30(4,5)6)27(42)37-15-18-20(31(18,7)8)21(37)25(40)34-19(13-17-11-12-32-24(17)39)22(38)26(41)33-14-16-9-10-16/h16-23,38H,9-15H2,1-8H3,(H,32,39)(H,33,41)(H,34,40)(H2,35,36,43)/t17-,18-,19-,20-,21-,22+,23+/m0/s1

> <OPENEYE_INCHIKEY>
RTEPKJZIQYUGOI-BLTUZGSGSA-N

> <FORMULA>
C31H52N6O6

$$$$
