W2G
  -OEChem-02242320043D

 25 26  0     1  0  0  0  0  0999 V2000
    1.5580    1.9020    0.1220 C   0  0  0  0  0  0  0  0  0  0  0  0
    0.9110    0.8490   -0.8020 C   0  0  2  0  0  0  0  0  0  0  0  0
   -0.5320    0.6430   -0.4190 C   0  0  0  0  0  0  0  0  0  0  0  0
   -0.9160    0.4290    0.8400 C   0  0  0  0  0  0  0  0  0  0  0  0
   -2.7770    0.4660   -0.8400 C   0  0  0  0  0  0  0  0  0  0  0  0
    0.0400   -2.2500   -0.9420 O   0  0  0  0  0  0  0  0  0  0  0  0
    0.7890   -1.5380   -0.0860 C   0  0  0  0  0  0  0  0  0  0  0  0
    0.7320   -1.7650    1.0990 O   0  0  0  0  0  0  0  0  0  0  0  0
    1.7020   -0.4560   -0.6030 C   0  0  2  0  0  0  0  0  0  0  0  0
   -1.5590    0.6660   -1.3460 C   0  0  0  0  0  0  0  0  0  0  0  0
    2.8010   -0.1510    0.4350 C   0  0  0  0  0  0  0  0  0  0  0  0
    3.0010    1.3840    0.3410 C   0  0  0  0  0  0  0  0  0  0  0  0
   -2.6630    0.2350    0.8990 S   0  0  0  0  0  0  0  0  0  0  0  0
    1.5720    2.8780   -0.3630 H   0  0  0  0  0  0  0  0  0  0  0  0
    1.0240    1.9560    1.0700 H   0  0  0  0  0  0  0  0  0  0  0  0
    0.9780    1.1730   -1.8410 H   0  0  0  0  0  0  0  0  0  0  0  0
   -0.2550    0.3810    1.6930 H   0  0  0  0  0  0  0  0  0  0  0  0
   -3.6940    0.4520   -1.4110 H   0  0  0  0  0  0  0  0  0  0  0  0
   -0.5290   -2.9340   -0.5640 H   0  0  0  0  0  0  0  0  0  0  0  0
    2.1530   -0.7660   -1.5460 H   0  0  0  0  0  0  0  0  0  0  0  0
   -1.3880    0.8340   -2.3990 H   0  0  0  0  0  0  0  0  0  0  0  0
    2.4670   -0.4310    1.4340 H   0  0  0  0  0  0  0  0  0  0  0  0
    3.7240   -0.6720    0.1800 H   0  0  0  0  0  0  0  0  0  0  0  0
    3.6340    1.6400   -0.5090 H   0  0  0  0  0  0  0  0  0  0  0  0
    3.4190    1.7760    1.2680 H   0  0  0  0  0  0  0  0  0  0  0  0
 11 12  1  0  0  0  0
  9 11  1  0  0  0  0
  1 12  1  0  0  0  0
  2  9  1  0  0  0  0
  7  9  1  0  0  0  0
  1  2  1  0  0  0  0
  2  3  1  0  0  0  0
  7  8  2  0  0  0  0
  6  7  1  0  0  0  0
  3  4  2  0  0  0  0
  4 13  1  0  0  0  0
  3 10  1  0  0  0  0
  5 13  1  0  0  0  0
  5 10  2  0  0  0  0
  1 14  1  0  0  0  0
  1 15  1  0  0  0  0
  2 16  1  0  0  0  0
  4 17  1  0  0  0  0
  5 18  1  0  0  0  0
  6 19  1  0  0  0  0
  9 20  1  0  0  0  0
 10 21  1  0  0  0  0
 11 22  1  0  0  0  0
 11 23  1  0  0  0  0
 12 24  1  0  0  0  0
 12 25  1  0  0  0  0
M  END
> <OPENEYE_ISO_SMILES>
c1cscc1[C@H]2CCC[C@H]2C(=O)O

> <OPENEYE_INCHI>
InChI=1S/C10H12O2S/c11-10(12)9-3-1-2-8(9)7-4-5-13-6-7/h4-6,8-9H,1-3H2,(H,11,12)/t8-,9-/m1/s1

> <OPENEYE_INCHIKEY>
GTNCFHPRVUWUBC-RKDXNWHRSA-N

> <FORMULA>
C10H12O2S

$$$$
