SQ2
  -OEChem-02242320043D

 37 39  0     0  0  0  0  0  0999 V2000
    2.0590    0.7390    0.1400 N   0  0  0  0  0  0  0  0  0  0  0  0
   -2.3330    2.0020   -0.3420 N   0  0  0  0  0  0  0  0  0  0  0  0
    2.9260    0.7350    1.3260 C   0  0  0  0  0  0  0  0  0  0  0  0
    0.7180    0.7870    0.2700 C   0  0  0  0  0  0  0  0  0  0  0  0
   -0.1590    0.7900   -0.9560 C   0  0  0  0  0  0  0  0  0  0  0  0
   -3.6390    0.3240    0.0550 C   0  0  0  0  0  0  0  0  0  0  0  0
   -4.6990   -0.5350    0.3710 C   0  0  0  0  0  0  0  0  0  0  0  0
   -3.2830   -2.4250   -0.0160 C   0  0  0  0  0  0  0  0  0  0  0  0
    2.6800    0.6950   -1.1910 C   0  0  0  0  0  0  0  0  0  0  0  0
    5.6060   -1.5920   -0.1690 C   0  0  0  0  0  0  0  0  0  0  0  0
   -2.2250   -1.6020   -0.3310 C   0  0  0  0  0  0  0  0  0  0  0  0
   -2.3930   -0.2220   -0.2980 C   0  0  0  0  0  0  0  0  0  0  0  0
    3.6330   -0.5040   -1.2500 C   0  0  0  0  0  0  0  0  0  0  0  0
    4.6300   -0.4150   -0.0930 C   0  0  0  0  0  0  0  0  0  0  0  0
    3.8760   -0.4630    1.2380 C   0  0  0  0  0  0  0  0  0  0  0  0
   -4.5140   -1.8860    0.3330 C   0  0  0  0  0  0  0  0  0  0  0  0
   -1.5650    0.8470   -0.5500 N   0  0  0  0  0  0  0  0  0  0  0  0
   -3.5250    1.6670    0.0070 N   0  0  0  0  0  0  0  0  0  0  0  0
    0.2170    0.8280    1.3740 O   0  0  0  0  0  0  0  0  0  0  0  0
    3.5050    1.6580    1.3580 H   0  0  0  0  0  0  0  0  0  0  0  0
    2.3160    0.6550    2.2250 H   0  0  0  0  0  0  0  0  0  0  0  0
    0.0780    1.6590   -1.5690 H   0  0  0  0  0  0  0  0  0  0  0  0
    0.0170   -0.1190   -1.5300 H   0  0  0  0  0  0  0  0  0  0  0  0
   -5.6610   -0.1290    0.6440 H   0  0  0  0  0  0  0  0  0  0  0  0
   -3.1540   -3.4970   -0.0410 H   0  0  0  0  0  0  0  0  0  0  0  0
    1.9080    0.5850   -1.9520 H   0  0  0  0  0  0  0  0  0  0  0  0
    3.2390    1.6150   -1.3640 H   0  0  0  0  0  0  0  0  0  0  0  0
    6.1440   -1.5570   -1.1170 H   0  0  0  0  0  0  0  0  0  0  0  0
    6.3160   -1.5290    0.6550 H   0  0  0  0  0  0  0  0  0  0  0  0
    5.0510   -2.5280   -0.1010 H   0  0  0  0  0  0  0  0  0  0  0  0
   -1.2690   -2.0260   -0.6000 H   0  0  0  0  0  0  0  0  0  0  0  0
    3.0610   -1.4280   -1.1670 H   0  0  0  0  0  0  0  0  0  0  0  0
    4.1730   -0.4930   -2.1970 H   0  0  0  0  0  0  0  0  0  0  0  0
    5.1850    0.5210   -0.1620 H   0  0  0  0  0  0  0  0  0  0  0  0
    4.5890   -0.4240    2.0620 H   0  0  0  0  0  0  0  0  0  0  0  0
    3.3020   -1.3880    1.2970 H   0  0  0  0  0  0  0  0  0  0  0  0
   -5.3350   -2.5440    0.5770 H   0  0  0  0  0  0  0  0  0  0  0  0
  2 18  2  0  0  0  0
  6 18  1  0  0  0  0
  2 17  1  0  0  0  0
  6  7  1  0  0  0  0
  7 16  2  0  0  0  0
  6 12  2  0  0  0  0
  8 16  1  0  0  0  0
 12 17  1  0  0  0  0
  5 17  1  0  0  0  0
 11 12  1  0  0  0  0
  4  5  1  0  0  0  0
  8 11  2  0  0  0  0
  4 19  2  0  0  0  0
  1  4  1  0  0  0  0
  1  3  1  0  0  0  0
  1  9  1  0  0  0  0
  3 15  1  0  0  0  0
 14 15  1  0  0  0  0
  9 13  1  0  0  0  0
 13 14  1  0  0  0  0
 10 14  1  0  0  0  0
  3 20  1  0  0  0  0
  3 21  1  0  0  0  0
  5 22  1  0  0  0  0
  5 23  1  0  0  0  0
  7 24  1  0  0  0  0
  8 25  1  0  0  0  0
  9 26  1  0  0  0  0
  9 27  1  0  0  0  0
 10 28  1  0  0  0  0
 10 29  1  0  0  0  0
 10 30  1  0  0  0  0
 11 31  1  0  0  0  0
 13 32  1  0  0  0  0
 13 33  1  0  0  0  0
 14 34  1  0  0  0  0
 15 35  1  0  0  0  0
 15 36  1  0  0  0  0
 16 37  1  0  0  0  0
M  END
> <OPENEYE_ISO_SMILES>
CC1CCN(CC1)C(=O)Cn2c3ccccc3nn2

> <OPENEYE_INCHI>
InChI=1S/C14H18N4O/c1-11-6-8-17(9-7-11)14(19)10-18-13-5-3-2-4-12(13)15-16-18/h2-5,11H,6-10H2,1H3

> <OPENEYE_INCHIKEY>
CTUYCKVPYLPOTM-UHFFFAOYSA-N

> <FORMULA>
C14H18N4O

$$$$
