WL7
  -OEChem-02242320043D

 29 29  0     1  0  0  0  0  0999 V2000
   -1.7770   -1.1820   -0.0670 C   0  0  0  0  0  0  0  0  0  0  0  0
   -1.4020    1.1760   -0.2860 C   0  0  0  0  0  0  0  0  0  0  0  0
    1.7460   -1.6660    1.5270 C   0  0  0  0  0  0  0  0  0  0  0  0
    2.1420    0.8300    1.2960 C   0  0  0  0  0  0  0  0  0  0  0  0
    3.6130    0.9440    0.8880 C   0  0  0  0  0  0  0  0  0  0  0  0
   -0.9240   -0.1220   -0.3160 C   0  0  0  0  0  0  0  0  0  0  0  0
   -3.1100   -0.9480    0.2070 C   0  0  0  0  0  0  0  0  0  0  0  0
   -3.5940    0.3540    0.2380 C   0  0  0  0  0  0  0  0  0  0  0  0
   -2.7330    1.4170   -0.0070 C   0  0  0  0  0  0  0  0  0  0  0  0
    1.5860   -0.4200    0.7730 N   0  0  3  0  0  0  0  0  0  0  0  0
   -4.9420    0.5930    0.5140 N   0  0  0  0  0  0  0  0  0  0  0  0
    3.7040    1.0550   -0.5340 O   0  0  0  0  0  0  0  0  0  0  0  0
    0.8500   -1.7530   -1.1690 O   0  0  0  0  0  0  0  0  0  0  0  0
    1.2400    0.7050   -1.3960 O   0  0  0  0  0  0  0  0  0  0  0  0
    0.7750   -0.4240   -0.6710 S   0  0  0  0  0  0  0  0  0  0  0  0
   -1.4010   -2.1940   -0.0920 H   0  0  0  0  0  0  0  0  0  0  0  0
   -0.7340    2.0010   -0.4800 H   0  0  0  0  0  0  0  0  0  0  0  0
    0.9040   -1.7890    2.2090 H   0  0  0  0  0  0  0  0  0  0  0  0
    1.7800   -2.5070    0.8350 H   0  0  0  0  0  0  0  0  0  0  0  0
    2.6740   -1.6280    2.0980 H   0  0  0  0  0  0  0  0  0  0  0  0
    2.0660    0.8350    2.3840 H   0  0  0  0  0  0  0  0  0  0  0  0
    1.5860    1.6740    0.8900 H   0  0  0  0  0  0  0  0  0  0  0  0
    4.0510    1.8280    1.3500 H   0  0  0  0  0  0  0  0  0  0  0  0
    4.1510    0.0560    1.2180 H   0  0  0  0  0  0  0  0  0  0  0  0
   -3.7760   -1.7770    0.3960 H   0  0  0  0  0  0  0  0  0  0  0  0
   -3.1060    2.4300    0.0160 H   0  0  0  0  0  0  0  0  0  0  0  0
   -5.5410   -0.1500    0.6840 H   0  0  0  0  0  0  0  0  0  0  0  0
   -5.2780    1.5030    0.5350 H   0  0  0  0  0  0  0  0  0  0  0  0
    4.6100    1.1310   -0.8650 H   0  0  0  0  0  0  0  0  0  0  0  0
  3 10  1  0  0  0  0
  2  9  2  0  0  0  0
  8  9  1  0  0  0  0
  8 11  1  0  0  0  0
  2  6  1  0  0  0  0
  7  8  2  0  0  0  0
  4 10  1  0  0  0  0
 10 15  1  0  0  0  0
  4  5  1  0  0  0  0
  5 12  1  0  0  0  0
  1  6  2  0  0  0  0
  6 15  1  0  0  0  0
  1  7  1  0  0  0  0
 13 15  2  0  0  0  0
 14 15  2  0  0  0  0
  1 16  1  0  0  0  0
  2 17  1  0  0  0  0
  3 18  1  0  0  0  0
  3 19  1  0  0  0  0
  3 20  1  0  0  0  0
  4 21  1  0  0  0  0
  4 22  1  0  0  0  0
  5 23  1  0  0  0  0
  5 24  1  0  0  0  0
  7 25  1  0  0  0  0
  9 26  1  0  0  0  0
 11 27  1  0  0  0  0
 11 28  1  0  0  0  0
 12 29  1  0  0  0  0
M  END
> <OPENEYE_ISO_SMILES>
CN(CCO)S(=O)(=O)c1ccc(cc1)N

> <OPENEYE_INCHI>
InChI=1S/C9H14N2O3S/c1-11(6-7-12)15(13,14)9-4-2-8(10)3-5-9/h2-5,12H,6-7,10H2,1H3

> <OPENEYE_INCHIKEY>
IFBDYRCQPHERQI-UHFFFAOYSA-N

> <FORMULA>
C9H14N2O3S

$$$$
