QTO
  -OEChem-02242320033D

 44 47  0     1  0  0  0  0  0999 V2000
   -1.0030    0.5390   -0.4100 C   0  0  0  0  0  0  0  0  0  0  0  0
   -6.2310   -0.7840    1.0410 C   0  0  0  0  0  0  0  0  0  0  0  0
   -4.9290   -0.3910    0.8050 C   0  0  0  0  0  0  0  0  0  0  0  0
   -7.2770   -0.1270    0.4200 C   0  0  0  0  0  0  0  0  0  0  0  0
   -7.0230    0.9290   -0.4360 C   0  0  0  0  0  0  0  0  0  0  0  0
   -5.7230    1.3310   -0.6720 C   0  0  0  0  0  0  0  0  0  0  0  0
   -4.6700    0.6660   -0.0580 C   0  0  0  0  0  0  0  0  0  0  0  0
   -2.3280    0.1340   -0.2900 C   0  0  0  0  0  0  0  0  0  0  0  0
    3.5710   -0.7550   -0.0660 C   0  0  0  0  0  0  0  0  0  0  0  0
    2.1970   -1.2920   -0.4870 C   0  0  0  0  0  0  0  0  0  0  0  0
    3.9610    1.7110   -0.0470 C   0  0  0  0  0  0  0  0  0  0  0  0
    3.3040    0.5620    0.6730 C   0  0  1  0  0  0  0  0  0  0  0  0
    1.7660    0.7200    0.6480 C   0  0  0  0  0  0  0  0  0  0  0  0
   -0.0120   -0.4390   -0.4030 C   0  0  0  0  0  0  0  0  0  0  0  0
   -1.6340   -2.0600   -0.1710 C   0  0  0  0  0  0  0  0  0  0  0  0
    4.4740   -1.7500    0.6610 C   0  0  0  0  0  0  0  0  0  0  0  0
    5.0620   -2.0930   -0.7200 C   0  0  0  0  0  0  0  0  0  0  0  0
    4.6210   -0.6900   -1.1740 C   0  0  0  0  0  0  0  0  0  0  0  0
    3.7670    0.4850    1.9900 F   0  0  0  0  0  0  0  0  0  0  0  0
    1.3240   -0.0880   -0.5190 N   0  0  2  0  0  0  0  0  0  0  0  0
   -0.3660   -1.7170   -0.2820 N   0  0  0  0  0  0  0  0  0  0  0  0
   -2.6000   -1.1640   -0.1680 N   0  0  0  0  0  0  0  0  0  0  0  0
   -3.3530    1.0700   -0.2960 N   0  0  0  0  0  0  0  0  0  0  0  0
    3.3970    2.2470   -0.9720 O   0  0  0  0  0  0  0  0  0  0  0  0
    5.1740    2.1390    0.3380 O   0  0  0  0  0  0  0  0  0  0  0  0
   -0.7490    1.5840   -0.5100 H   0  0  0  0  0  0  0  0  0  0  0  0
   -6.4330   -1.6090    1.7080 H   0  0  0  0  0  0  0  0  0  0  0  0
   -4.1120   -0.9050    1.2910 H   0  0  0  0  0  0  0  0  0  0  0  0
   -8.2950   -0.4390    0.6030 H   0  0  0  0  0  0  0  0  0  0  0  0
   -7.8420    1.4410   -0.9190 H   0  0  0  0  0  0  0  0  0  0  0  0
   -5.5260    2.1560   -1.3410 H   0  0  0  0  0  0  0  0  0  0  0  0
    2.2530   -1.7490   -1.4750 H   0  0  0  0  0  0  0  0  0  0  0  0
    1.8280   -2.0110    0.2450 H   0  0  0  0  0  0  0  0  0  0  0  0
    1.3290    0.3290    1.5670 H   0  0  0  0  0  0  0  0  0  0  0  0
    1.4930    1.7660    0.5140 H   0  0  0  0  0  0  0  0  0  0  0  0
   -1.8880   -3.1050   -0.0750 H   0  0  0  0  0  0  0  0  0  0  0  0
    5.1890   -1.2800    1.3360 H   0  0  0  0  0  0  0  0  0  0  0  0
    3.9330   -2.5750    1.1250 H   0  0  0  0  0  0  0  0  0  0  0  0
    6.1440   -2.2290   -0.7120 H   0  0  0  0  0  0  0  0  0  0  0  0
    4.5380   -2.9020   -1.2290 H   0  0  0  0  0  0  0  0  0  0  0  0
    4.1970   -0.6680   -2.1780 H   0  0  0  0  0  0  0  0  0  0  0  0
    5.3770    0.0790   -1.0160 H   0  0  0  0  0  0  0  0  0  0  0  0
   -3.1550    2.0050   -0.4650 H   0  0  0  0  0  0  0  0  0  0  0  0
    5.5550    2.8790   -0.1540 H   0  0  0  0  0  0  0  0  0  0  0  0
 11 24  2  0  0  0  0
 13 20  1  0  0  0  0
 14 21  2  0  0  0  0
 15 21  1  0  0  0  0
 15 22  2  0  0  0  0
  8 22  1  0  0  0  0
  7 23  1  0  0  0  0
  6  7  2  0  0  0  0
  5  6  1  0  0  0  0
  4  5  2  0  0  0  0
  2  4  1  0  0  0  0
  2  3  2  0  0  0  0
  8 23  1  0  0  0  0
  1  8  2  0  0  0  0
 14 20  1  0  0  0  0
 10 20  1  0  0  0  0
  9 10  1  0  0  0  0
  9 16  1  0  0  0  0
 16 17  1  0  0  0  0
 17 18  1  0  0  0  0
 12 13  1  0  0  0  0
 12 19  1  0  0  0  0
 11 12  1  0  0  0  0
 11 25  1  0  0  0  0
  9 12  1  0  0  0  0
  1 14  1  0  0  0  0
  3  7  1  0  0  0  0
  9 18  1  0  0  0  0
  1 26  1  0  0  0  0
  2 27  1  0  0  0  0
  3 28  1  0  0  0  0
  4 29  1  0  0  0  0
  5 30  1  0  0  0  0
  6 31  1  0  0  0  0
 10 32  1  0  0  0  0
 10 33  1  0  0  0  0
 13 34  1  0  0  0  0
 13 35  1  0  0  0  0
 15 36  1  0  0  0  0
 16 37  1  0  0  0  0
 16 38  1  0  0  0  0
 17 39  1  0  0  0  0
 17 40  1  0  0  0  0
 18 41  1  0  0  0  0
 18 42  1  0  0  0  0
 23 43  1  0  0  0  0
 25 44  1  0  0  0  0
M  END
> <OPENEYE_ISO_SMILES>
c1ccc(cc1)Nc2cc(ncn2)[N@]3C[C@@](C4(C3)CCC4)(C(=O)O)F

> <OPENEYE_INCHI>
InChI=1S/C18H19FN4O2/c19-18(16(24)25)11-23(10-17(18)7-4-8-17)15-9-14(20-12-21-15)22-13-5-2-1-3-6-13/h1-3,5-6,9,12H,4,7-8,10-11H2,(H,24,25)(H,20,21,22)/t18-/m0/s1

> <OPENEYE_INCHIKEY>
SGZPNVIZJRFOKP-SFHVURJKSA-N

> <FORMULA>
C18H19FN4O2

$$$$
