@<TRIPOS>MOLECULE
/home/pku/3cl/gett_pdb/7T4A/7T4A_mol2/ligand/7T4A_EQS.pdb
 33 35 0 0 0
SMALL
GASTEIGER

@<TRIPOS>ATOM
      1  C12       12.6960   22.1440   26.4970 C.3   501  EQS501      0.1761
      2  C15       15.5160   22.0880   25.4420 C.3   501  EQS501      0.0001
      3  C17       11.3060   21.6920   27.1400 C.2   501  EQS501      0.2614
      4  C20        8.3330   19.8780   26.0190 C.3   501  EQS501      0.0379
      5  C21        8.0580   21.2940   25.3720 C.3   501  EQS501      0.1036
      6  C22        7.0380   21.0940   24.2090 C.2   501  EQS501      0.2493
      7  C24        5.9910   22.4840   25.8710 C.2   501  EQS501      0.0845
      8  C25        7.4130   22.0910   26.4730 C.2   501  EQS501      0.0007
      9  C27        9.6430   18.5750   27.8420 C.3   501  EQS501      0.2036
     10  C31        9.0650   26.9870   24.9920 C.3   501  EQS501      0.0439
     11  C16       16.4700   22.0080   27.8780 C.3   501  EQS501      0.0001
     12  C02        5.2610   29.8110   21.8890 C.1   501  EQS501      0.1703
     13  C04        7.2900   29.5660   23.7430 C.3   501  EQS501      0.1016
     14  C05        8.8530   29.3040   23.8320 C.3   501  EQS501      0.0225
     15  C07       10.6710   27.4920   23.6830 C.3   501  EQS501      0.0439
     16  O09       11.2970   25.6150   25.3780 O.3   501  EQS501     -0.4373
     17  C10       11.5660   24.1800   25.3310 C.2   501  EQS501      0.4214
     18  C13       13.9080   21.8880   27.5210 C.3   501  EQS501      0.0312
     19  C14       15.2740   22.4590   26.9490 C.3   501  EQS501      0.0022
     20  C19        9.3700   19.9970   27.1650 C.3   501  EQS501      0.1290
     21  C06        9.1430   27.8170   23.6290 C.3   501  EQS501      0.0103
     22  C08       10.3170   26.1420   24.4280 C.3   501  EQS501      0.1705
     23  C32        8.5490   27.3550   22.2910 C.3   501  EQS501      0.0225
     24  C33        7.1450   27.9600   21.7710 C.3   501  EQS501      0.1016
     25  N01        4.1740   30.1780   21.5920 N.1   501  EQS501     -0.1741
     26  N03        6.6230   29.3490   22.2880 N.pl3 501  EQS501     -0.2474
     27  N11       12.5680   23.6280   26.2390 N.am  501  EQS501     -0.1611
     28  N18       10.6740   20.4710   26.6170 N.am  501  EQS501     -0.2030
     29  N23        5.8540   21.8030   24.4730 N.am  501  EQS501     -0.1780
     30  O26        7.2830   20.4400   23.2030 O.2   501  EQS501     -0.2726
     31  O28        8.3700   18.0520   28.2220 O.3   501  EQS501     -0.2185
     32  O29       10.7670   22.3550   28.0140 O.2   501  EQS501     -0.2715
     33  O30       10.9660   23.4350   24.5640 O.2   501  EQS501     -0.2246
@<TRIPOS>BOND
     1    25    12    3
     2    24    26    1
     3    24    23    1
     4    12    26    1
     5    26    13    1
     6    23    21    1
     7    30     6    2
     8    21    15    1
     9    21    14    1
    10    21    10    1
    11    15    22    1
    12    13    14    1
    13     6    29   am
    14     6     5    1
    15    22    10    1
    16    22    16    1
    17    29     7    1
    18    33    17    2
    19    17    16    1
    20    17    27   am
    21     5     4    1
    22     5     8    1
    23     2    19    1
    24     7     8    2
    25     4    20    1
    26    27     1    1
    27     1     3    1
    28     1    18    1
    29    28     3   am
    30    28    20    1
    31    19    18    1
    32    19    11    1
    33     3    32    2
    34    20     9    1
    35     9    31    1
