UTU
  -OEChem-02242320043D

 74 75  0     1  0  0  0  0  0999 V2000
    0.2800    0.2800   -0.1630 N   0  0  0  0  0  0  0  0  0  0  0  0
   -1.0400    0.3750    0.4670 C   0  0  2  0  0  0  0  0  0  0  0  0
   -6.9030   -2.6700    1.5660 O   0  0  0  0  0  0  0  0  0  0  0  0
   -6.1260   -4.4480    0.3910 N   0  0  0  0  0  0  0  0  0  0  0  0
   -2.4200    1.7680    2.0160 C   0  0  0  0  0  0  0  0  0  0  0  0
   -2.1070    0.8940    3.2320 C   0  0  0  0  0  0  0  0  0  0  0  0
   -2.7090    3.1980    2.4760 C   0  0  0  0  0  0  0  0  0  0  0  0
   -3.4010    0.0450   -0.1930 N   0  0  0  0  0  0  0  0  0  0  0  0
   -1.8070    0.0170   -1.7360 O   0  0  0  0  0  0  0  0  0  0  0  0
   -2.1090    0.1330   -0.5670 C   0  0  0  0  0  0  0  0  0  0  0  0
   -4.4250   -0.3140   -1.1770 C   0  0  2  0  0  0  0  0  0  0  0  0
    1.3690    0.0250    0.5890 C   0  0  0  0  0  0  0  0  0  0  0  0
   -5.0320   -2.4020    0.0540 C   0  0  1  0  0  0  0  0  0  0  0  0
   -6.1300   -3.1580    0.7690 C   0  0  0  0  0  0  0  0  0  0  0  0
   -5.0550   -4.7160   -0.5760 C   0  0  0  0  0  0  0  0  0  0  0  0
   -4.6310   -3.3320   -1.1160 C   0  0  0  0  0  0  0  0  0  0  0  0
   -4.9800    0.9570   -1.8230 C   0  0  2  0  0  0  0  0  0  0  0  0
    3.7200   -0.2470    0.8970 C   0  0  0  0  0  0  0  0  0  0  0  0
    5.0160   -0.1900    0.0860 C   0  0  0  0  0  0  0  0  0  0  0  0
    4.9630   -1.2300   -1.0350 C   0  0  0  0  0  0  0  0  0  0  0  0
    5.1780    1.2060   -0.5200 C   0  0  0  0  0  0  0  0  0  0  0  0
    7.8120   -0.3030    0.1150 C   0  0  0  0  0  0  0  0  0  0  0  0
    7.6200   -0.0380   -1.2360 C   0  0  0  0  0  0  0  0  0  0  0  0
    8.7090    0.1550   -2.0630 C   0  0  0  0  0  0  0  0  0  0  0  0
    9.9910    0.0860   -1.5490 C   0  0  0  0  0  0  0  0  0  0  0  0
   10.1880   -0.1770   -0.2030 C   0  0  0  0  0  0  0  0  0  0  0  0
    9.1010   -0.3720    0.6300 C   0  0  0  0  0  0  0  0  0  0  0  0
   -1.2180    1.7710    1.0680 C   0  0  0  0  0  0  0  0  0  0  0  0
   -5.5590   -1.0680   -0.4800 C   0  0  0  0  0  0  0  0  0  0  0  0
   11.4410   -0.2440    0.2960 F   0  0  0  0  0  0  0  0  0  0  0  0
    1.2460   -0.2140    1.7730 O   0  0  0  0  0  0  0  0  0  0  0  0
   -3.9470    1.6010   -2.5720 O   0  0  0  0  0  0  0  0  0  0  0  0
    2.5920    0.0360    0.0270 O   0  0  0  0  0  0  0  0  0  0  0  0
    6.4240   -0.5440    1.1730 S   0  0  0  0  0  0  0  0  0  0  0  0
    0.3690    0.3970   -1.1220 H   0  0  0  0  0  0  0  0  0  0  0  0
   -1.1210   -0.3730    1.2550 H   0  0  0  0  0  0  0  0  0  0  0  0
   -6.7470   -5.1160    0.7190 H   0  0  0  0  0  0  0  0  0  0  0  0
   -3.2910    1.3700    1.4960 H   0  0  0  0  0  0  0  0  0  0  0  0
   -1.2820    1.3340    3.7930 H   0  0  0  0  0  0  0  0  0  0  0  0
   -4.1850   -2.2390    0.7200 H   0  0  0  0  0  0  0  0  0  0  0  0
   -4.2130   -5.2020   -0.0820 H   0  0  0  0  0  0  0  0  0  0  0  0
   -5.4270   -5.3410   -1.3870 H   0  0  0  0  0  0  0  0  0  0  0  0
   -5.1830   -3.0810   -2.0220 H   0  0  0  0  0  0  0  0  0  0  0  0
   -3.5560   -3.2950   -1.2930 H   0  0  0  0  0  0  0  0  0  0  0  0
   -5.8030    0.6970   -2.4890 H   0  0  0  0  0  0  0  0  0  0  0  0
    3.6040   -1.2410    1.3280 H   0  0  0  0  0  0  0  0  0  0  0  0
    3.7570    0.4940    1.6950 H   0  0  0  0  0  0  0  0  0  0  0  0
    4.2850   -0.8870   -1.8160 H   0  0  0  0  0  0  0  0  0  0  0  0
    5.9610   -1.3650   -1.4530 H   0  0  0  0  0  0  0  0  0  0  0  0
    4.6060   -2.1780   -0.6340 H   0  0  0  0  0  0  0  0  0  0  0  0
    5.0100    1.9580    0.2510 H   0  0  0  0  0  0  0  0  0  0  0  0
    6.1860    1.3140   -0.9200 H   0  0  0  0  0  0  0  0  0  0  0  0
    4.4520    1.3400   -1.3220 H   0  0  0  0  0  0  0  0  0  0  0  0
    6.6200    0.0150   -1.6390 H   0  0  0  0  0  0  0  0  0  0  0  0
    8.5590    0.3610   -3.1120 H   0  0  0  0  0  0  0  0  0  0  0  0
   10.8410    0.2380   -2.1980 H   0  0  0  0  0  0  0  0  0  0  0  0
    9.2530   -0.5770    1.6790 H   0  0  0  0  0  0  0  0  0  0  0  0
   -0.3200    2.0460    1.6200 H   0  0  0  0  0  0  0  0  0  0  0  0
   -1.3880    2.4920    0.2680 H   0  0  0  0  0  0  0  0  0  0  0  0
   -5.9380   -0.4700    0.3490 H   0  0  0  0  0  0  0  0  0  0  0  0
   -6.3640   -1.2540   -1.1910 H   0  0  0  0  0  0  0  0  0  0  0  0
   -3.1810    1.8610   -2.0420 H   0  0  0  0  0  0  0  0  0  0  0  0
   -5.5800    2.0800   -0.5310 S   0  0  0  0  0  0  0  0  0  0  0  0
   -6.7330    1.5420    0.1010 O   0  0  0  0  0  0  0  0  0  0  0  0
   -4.4940    2.5860    0.2340 O   0  0  0  0  0  0  0  0  0  0  0  0
   -6.1000    3.2910   -1.2920 O   0  0  0  0  0  0  0  0  0  0  0  0
   -2.9880    0.8320    3.8700 H   0  0  0  0  0  0  0  0  0  0  0  0
   -1.8280   -0.1060    2.8990 H   0  0  0  0  0  0  0  0  0  0  0  0
   -1.8380    3.5960    2.9950 H   0  0  0  0  0  0  0  0  0  0  0  0
   -2.9320    3.8210    1.6090 H   0  0  0  0  0  0  0  0  0  0  0  0
   -3.5650    3.1960    3.1510 H   0  0  0  0  0  0  0  0  0  0  0  0
   -3.6520    0.2200    0.7270 H   0  0  0  0  0  0  0  0  0  0  0  0
   -3.9850   -0.9490   -1.9450 H   0  0  0  0  0  0  0  0  0  0  0  0
   -6.4580    3.9880   -0.7250 H   0  0  0  0  0  0  0  0  0  0  0  0
  5  7  1  0  0  0  0
 23 24  2  0  0  0  0
 22 23  1  0  0  0  0
  5  6  1  0  0  0  0
  5 28  1  0  0  0  0
 22 34  1  0  0  0  0
 19 34  1  0  0  0  0
 24 25  1  0  0  0  0
 22 27  2  0  0  0  0
 25 26  2  0  0  0  0
 26 27  1  0  0  0  0
 26 30  1  0  0  0  0
  2 28  1  0  0  0  0
 19 21  1  0  0  0  0
 18 19  1  0  0  0  0
 19 20  1  0  0  0  0
 18 33  1  0  0  0  0
  1  2  1  0  0  0  0
  1 12  1  0  0  0  0
  2 10  1  0  0  0  0
 12 33  1  0  0  0  0
 12 31  2  0  0  0  0
  9 10  2  0  0  0  0
  8 10  1  0  0  0  0
  8 11  1  0  0  0  0
 17 32  1  0  0  0  0
 11 17  1  0  0  0  0
 11 29  1  0  0  0  0
 13 29  1  0  0  0  0
 13 16  1  0  0  0  0
 13 14  1  0  0  0  0
 15 16  1  0  0  0  0
  4 15  1  0  0  0  0
  3 14  2  0  0  0  0
  4 14  1  0  0  0  0
  1 35  1  0  0  0  0
  2 36  1  0  0  0  0
  4 37  1  0  0  0  0
  5 38  1  0  0  0  0
  6 39  1  0  0  0  0
 13 40  1  0  0  0  0
 15 41  1  0  0  0  0
 15 42  1  0  0  0  0
 16 43  1  0  0  0  0
 16 44  1  0  0  0  0
 17 45  1  0  0  0  0
 18 46  1  0  0  0  0
 18 47  1  0  0  0  0
 20 48  1  0  0  0  0
 20 49  1  0  0  0  0
 20 50  1  0  0  0  0
 21 51  1  0  0  0  0
 21 52  1  0  0  0  0
 21 53  1  0  0  0  0
 23 54  1  0  0  0  0
 24 55  1  0  0  0  0
 25 56  1  0  0  0  0
 27 57  1  0  0  0  0
 28 58  1  0  0  0  0
 28 59  1  0  0  0  0
 29 60  1  0  0  0  0
 29 61  1  0  0  0  0
 32 62  1  0  0  0  0
 17 63  1  0  0  0  0
 63 64  2  0  0  0  0
 63 65  2  0  0  0  0
 63 66  1  0  0  0  0
  6 67  1  0  0  0  0
  6 68  1  0  0  0  0
  7 69  1  0  0  0  0
  7 70  1  0  0  0  0
  7 71  1  0  0  0  0
  8 72  1  0  0  0  0
 11 73  1  0  0  0  0
 66 74  1  0  0  0  0
M  END
> <OPENEYE_ISO_SMILES>
CC(C)C[C@@H](C(=O)N[C@@H](C[C@@H]1CCNC1=O)[C@H](O)S(=O)(=O)O)NC(=O)OCC(C)(C)Sc2cccc(c2)F

> <OPENEYE_INCHI>
InChI=1S/C24H36FN3O8S2/c1-14(2)10-18(28-23(32)36-13-24(3,4)37-17-7-5-6-16(25)12-17)21(30)27-19(22(31)38(33,34)35)11-15-8-9-26-20(15)29/h5-7,12,14-15,18-19,22,31H,8-11,13H2,1-4H3,(H,26,29)(H,27,30)(H,28,32)(H,33,34,35)/t15-,18-,19-,22+/m0/s1

> <OPENEYE_INCHIKEY>
NFWHYSIWTLKADL-SXTKRDDTSA-N

> <FORMULA>
C24H36FN3O8S2

$$$$
