QXL
  -OEChem-02242320033D

 32 34  0     1  0  0  0  0  0999 V2000
    1.9710   -1.1430    0.1910 C   0  0  0  0  0  0  0  0  0  0  0  0
   -2.5050    2.0990    0.5660 C   0  0  0  0  0  0  0  0  0  0  0  0
   -3.9240    0.3250    0.1980 C   0  0  0  0  0  0  0  0  0  0  0  0
   -4.6660   -1.7400   -0.2690 C   0  0  0  0  0  0  0  0  0  0  0  0
   -3.3280   -1.8240   -0.3410 C   0  0  0  0  0  0  0  0  0  0  0  0
    3.7530    0.5740   -1.1400 C   0  0  0  0  0  0  0  0  0  0  0  0
    2.5250    1.4700   -1.3130 C   0  0  0  0  0  0  0  0  0  0  0  0
    1.2700    0.6130   -1.4500 C   0  0  0  0  0  0  0  0  0  0  0  0
    0.9330   -0.0640   -0.1240 C   0  0  1  0  0  0  0  0  0  0  0  0
   -1.5260    0.0820    0.0230 C   0  0  0  0  0  0  0  0  0  0  0  0
   -2.8040   -0.4910   -0.0490 C   0  0  0  0  0  0  0  0  0  0  0  0
   -0.3940   -0.6780   -0.2150 N   0  0  0  0  0  0  0  0  0  0  0  0
   -5.0350   -0.4600    0.0570 N   0  0  0  0  0  0  0  0  0  0  0  0
   -3.7240    1.6070    0.5000 N   0  0  0  0  0  0  0  0  0  0  0  0
   -1.4280    1.3700    0.3370 N   0  0  0  0  0  0  0  0  0  0  0  0
    3.5070    0.5680    1.4890 O   0  0  0  0  0  0  0  0  0  0  0  0
    4.5900   -1.3680    0.4410 O   0  0  0  0  0  0  0  0  0  0  0  0
    3.5930   -0.3560    0.4130 S   0  0  0  0  0  0  0  0  0  0  0  0
    1.6900   -1.6630    1.1070 H   0  0  0  0  0  0  0  0  0  0  0  0
    2.0190   -1.8550   -0.6330 H   0  0  0  0  0  0  0  0  0  0  0  0
   -2.3810    3.1430    0.8130 H   0  0  0  0  0  0  0  0  0  0  0  0
   -5.3490   -2.5600   -0.4350 H   0  0  0  0  0  0  0  0  0  0  0  0
   -2.7490   -2.7070   -0.5710 H   0  0  0  0  0  0  0  0  0  0  0  0
    3.8190   -0.1220   -1.9760 H   0  0  0  0  0  0  0  0  0  0  0  0
    4.6530    1.1890   -1.1050 H   0  0  0  0  0  0  0  0  0  0  0  0
    2.4250    2.1200   -0.4440 H   0  0  0  0  0  0  0  0  0  0  0  0
    2.6450    2.0790   -2.2090 H   0  0  0  0  0  0  0  0  0  0  0  0
    0.4350    1.2440   -1.7540 H   0  0  0  0  0  0  0  0  0  0  0  0
    1.4370   -0.1510   -2.2100 H   0  0  0  0  0  0  0  0  0  0  0  0
    0.9320    0.6810    0.6720 H   0  0  0  0  0  0  0  0  0  0  0  0
   -0.4800   -1.6170   -0.4430 H   0  0  0  0  0  0  0  0  0  0  0  0
   -5.9490   -0.1570    0.1700 H   0  0  0  0  0  0  0  0  0  0  0  0
 16 18  2  0  0  0  0
  6  7  1  0  0  0  0
  7  8  1  0  0  0  0
  8  9  1  0  0  0  0
 10 12  1  0  0  0  0
 10 11  2  0  0  0  0
  5 11  1  0  0  0  0
  4  5  2  0  0  0  0
  4 13  1  0  0  0  0
  3 13  1  0  0  0  0
  3 14  2  0  0  0  0
  2 14  1  0  0  0  0
  2 15  2  0  0  0  0
  9 12  1  0  0  0  0
  1  9  1  0  0  0  0
  6 18  1  0  0  0  0
 17 18  2  0  0  0  0
  1 18  1  0  0  0  0
 10 15  1  0  0  0  0
  3 11  1  0  0  0  0
  1 19  1  0  0  0  0
  1 20  1  0  0  0  0
  2 21  1  0  0  0  0
  4 22  1  0  0  0  0
  5 23  1  0  0  0  0
  6 24  1  0  0  0  0
  6 25  1  0  0  0  0
  7 26  1  0  0  0  0
  7 27  1  0  0  0  0
  8 28  1  0  0  0  0
  8 29  1  0  0  0  0
  9 30  1  0  0  0  0
 12 31  1  0  0  0  0
 13 32  1  0  0  0  0
M  END
> <OPENEYE_ISO_SMILES>
c1c[nH]c2c1c(ncn2)N[C@@H]3CCCS(=O)(=O)C3

> <OPENEYE_INCHI>
InChI=1S/C11H14N4O2S/c16-18(17)5-1-2-8(6-18)15-11-9-3-4-12-10(9)13-7-14-11/h3-4,7-8H,1-2,5-6H2,(H2,12,13,14,15)/t8-/m1/s1

> <OPENEYE_INCHIKEY>
AZZWDFMEYOBJAU-MRVPVSSYSA-N

> <FORMULA>
C11H14N4O2S

$$$$
