W5D
  -OEChem-02242320043D

 36 38  0     1  0  0  0  0  0999 V2000
   -0.8530    0.5860    0.1380 C   0  0  0  0  0  0  0  0  0  0  0  0
   -1.7910   -1.8320   -0.3990 C   0  0  0  0  0  0  0  0  0  0  0  0
    3.9340   -1.1250   -0.3110 C   0  0  0  0  0  0  0  0  0  0  0  0
    2.2220   -1.2630    1.3150 C   0  0  0  0  0  0  0  0  0  0  0  0
    0.7620   -0.8140    1.1440 C   0  0  0  0  0  0  0  0  0  0  0  0
    3.9900    0.4150   -0.3020 C   0  0  0  0  0  0  0  0  0  0  0  0
    2.9410    0.8840   -1.3650 C   0  0  0  0  0  0  0  0  0  0  0  0
    2.0570    1.9320   -0.6570 C   0  0  0  0  0  0  0  0  0  0  0  0
    1.3210    1.4500    0.6110 C   0  0  0  0  0  0  0  0  0  0  0  0
   -2.5460    2.1430    0.3180 C   0  0  0  0  0  0  0  0  0  0  0  0
   -3.1770   -0.0220   -0.1370 C   0  0  0  0  0  0  0  0  0  0  0  0
   -3.0660   -2.2230   -0.5610 C   0  0  0  0  0  0  0  0  0  0  0  0
   -1.8210   -0.3980   -0.1200 C   0  0  0  0  0  0  0  0  0  0  0  0
    0.4920    0.2660    0.1650 N   0  0  2  0  0  0  0  0  0  0  0  0
   -1.2620    1.8330    0.3490 N   0  0  0  0  0  0  0  0  0  0  0  0
   -3.4870    1.2550    0.0820 N   0  0  0  0  0  0  0  0  0  0  0  0
   -3.9040   -1.1490   -0.4070 N   0  0  0  0  0  0  0  0  0  0  0  0
    2.6620   -1.7350   -0.0040 O   0  0  0  0  0  0  0  0  0  0  0  0
   -0.9130   -2.4580   -0.4620 H   0  0  0  0  0  0  0  0  0  0  0  0
    4.2400   -1.4660   -1.3000 H   0  0  0  0  0  0  0  0  0  0  0  0
    4.6660   -1.4920    0.4080 H   0  0  0  0  0  0  0  0  0  0  0  0
    2.8370   -0.4230    1.6370 H   0  0  0  0  0  0  0  0  0  0  0  0
    2.2820   -2.0730    2.0420 H   0  0  0  0  0  0  0  0  0  0  0  0
    0.1770   -1.6860    0.8510 H   0  0  0  0  0  0  0  0  0  0  0  0
    0.3980   -0.4830    2.1160 H   0  0  0  0  0  0  0  0  0  0  0  0
    3.7220    0.7960    0.6830 H   0  0  0  0  0  0  0  0  0  0  0  0
    4.9870    0.7570   -0.5810 H   0  0  0  0  0  0  0  0  0  0  0  0
    3.4480    1.3360   -2.2180 H   0  0  0  0  0  0  0  0  0  0  0  0
    2.3340    0.0400   -1.6910 H   0  0  0  0  0  0  0  0  0  0  0  0
    2.6870    2.7790   -0.3830 H   0  0  0  0  0  0  0  0  0  0  0  0
    1.3120    2.2850   -1.3690 H   0  0  0  0  0  0  0  0  0  0  0  0
    2.0400    1.1430    1.3710 H   0  0  0  0  0  0  0  0  0  0  0  0
    0.6760    2.2400    0.9960 H   0  0  0  0  0  0  0  0  0  0  0  0
   -2.8350    3.1690    0.4950 H   0  0  0  0  0  0  0  0  0  0  0  0
   -3.3830   -3.2310   -0.7800 H   0  0  0  0  0  0  0  0  0  0  0  0
   -4.8710   -1.1830   -0.4790 H   0  0  0  0  0  0  0  0  0  0  0  0
  1 13  2  0  0  0  0
  1 14  1  0  0  0  0
  1 15  1  0  0  0  0
  2 12  2  0  0  0  0
  2 13  1  0  0  0  0
  3  6  1  0  0  0  0
  3 18  1  0  0  0  0
  4  5  1  0  0  0  0
  4 18  1  0  0  0  0
  5 14  1  0  0  0  0
  6  7  1  0  0  0  0
  7  8  1  0  0  0  0
  8  9  1  0  0  0  0
  9 14  1  0  0  0  0
 10 15  2  0  0  0  0
 10 16  1  0  0  0  0
 11 13  1  0  0  0  0
 11 16  2  0  0  0  0
 11 17  1  0  0  0  0
 12 17  1  0  0  0  0
  2 19  1  0  0  0  0
  3 20  1  0  0  0  0
  3 21  1  0  0  0  0
  4 22  1  0  0  0  0
  4 23  1  0  0  0  0
  5 24  1  0  0  0  0
  5 25  1  0  0  0  0
  6 26  1  0  0  0  0
  6 27  1  0  0  0  0
  7 28  1  0  0  0  0
  7 29  1  0  0  0  0
  8 30  1  0  0  0  0
  8 31  1  0  0  0  0
  9 32  1  0  0  0  0
  9 33  1  0  0  0  0
 10 34  1  0  0  0  0
 12 35  1  0  0  0  0
 17 36  1  0  0  0  0
M  END
> <OPENEYE_ISO_SMILES>
c1c[nH]c2c1c(ncn2)[N@]3CCCCCOCC3

> <OPENEYE_INCHI>
InChI=1S/C13H18N4O/c1-2-6-17(7-9-18-8-3-1)13-11-4-5-14-12(11)15-10-16-13/h4-5,10H,1-3,6-9H2,(H,14,15,16)

> <OPENEYE_INCHIKEY>
UZDOXWRWKJXTPZ-UHFFFAOYSA-N

> <FORMULA>
C13H18N4O

$$$$
