QZ7
  -OEChem-02242320033D

 63 64  0     1  0  0  0  0  0999 V2000
   -6.8270    0.5290   -0.1590 C   0  0  0  0  0  0  0  0  0  0  0  0
   -6.0950    1.4560   -1.1310 C   0  0  0  0  0  0  0  0  0  0  0  0
   -4.8500    0.7490   -1.6710 C   0  0  0  0  0  0  0  0  0  0  0  0
   -3.9210    0.3940   -0.5080 C   0  0  0  0  0  0  0  0  0  0  0  0
   -1.5970   -0.1160   -0.3260 C   0  0  0  0  0  0  0  0  0  0  0  0
    0.7800   -0.5360    0.0070 C   0  0  1  0  0  0  0  0  0  0  0  0
    0.8360   -1.5610    1.1420 C   0  0  0  0  0  0  0  0  0  0  0  0
   -0.2870   -1.2770    2.1420 C   0  0  0  0  0  0  0  0  0  0  0  0
   -0.3080   -2.3730    3.2090 C   0  0  0  0  0  0  0  0  0  0  0  0
   -0.0460    0.0790    2.8080 C   0  0  0  0  0  0  0  0  0  0  0  0
    1.9570   -0.7390   -0.9110 C   0  0  0  0  0  0  0  0  0  0  0  0
    4.3570   -0.8230   -1.3260 C   0  0  1  0  0  0  0  0  0  0  0  0
    5.5690   -0.0680   -0.7760 C   0  0  0  0  0  0  0  0  0  0  0  0
    5.2890    1.4360   -0.8020 C   0  0  1  0  0  0  0  0  0  0  0  0
    4.1800    1.7850    0.1660 C   0  0  0  0  0  0  0  0  0  0  0  0
    6.1610    2.3940    1.2160 C   0  0  0  0  0  0  0  0  0  0  0  0
    6.5120    2.2230   -0.2790 C   0  0  0  0  0  0  0  0  0  0  0  0
    4.6820   -2.3150   -1.4160 C   0  0  0  0  0  0  0  0  0  0  0  0
   -4.6540   -0.5330    0.4650 C   0  0  0  0  0  0  0  0  0  0  0  0
   -5.8980    0.1740    1.0040 C   0  0  0  0  0  0  0  0  0  0  0  0
   -7.9660    1.1760    0.3350 F   0  0  0  0  0  0  0  0  0  0  0  0
   -7.2070   -0.6400   -0.8260 F   0  0  0  0  0  0  0  0  0  0  0  0
   -0.4640   -0.7120   -0.7470 N   0  0  0  0  0  0  0  0  0  0  0  0
    3.2120   -0.6260   -0.4330 N   0  0  0  0  0  0  0  0  0  0  0  0
    4.6960    2.3240    1.2840 N   0  0  0  0  0  0  0  0  0  0  0  0
   -2.7400   -0.2770   -1.0190 O   0  0  0  0  0  0  0  0  0  0  0  0
    2.9980    1.6050   -0.0360 O   0  0  0  0  0  0  0  0  0  0  0  0
    5.1150   -2.7860   -0.1390 O   0  0  0  0  0  0  0  0  0  0  0  0
    1.7750   -1.0040   -2.0810 O   0  0  0  0  0  0  0  0  0  0  0  0
   -1.5870    0.5670    0.6790 O   0  0  0  0  0  0  0  0  0  0  0  0
   -6.7570    1.7090   -1.9600 H   0  0  0  0  0  0  0  0  0  0  0  0
   -5.7990    2.3680   -0.6120 H   0  0  0  0  0  0  0  0  0  0  0  0
   -5.1470   -0.1620   -2.1900 H   0  0  0  0  0  0  0  0  0  0  0  0
   -4.3290    1.4090   -2.3630 H   0  0  0  0  0  0  0  0  0  0  0  0
   -3.6250    1.3050    0.0120 H   0  0  0  0  0  0  0  0  0  0  0  0
    0.8130    0.4700    0.4240 H   0  0  0  0  0  0  0  0  0  0  0  0
    0.7140   -2.5640    0.7330 H   0  0  0  0  0  0  0  0  0  0  0  0
    1.7990   -1.4900    1.6480 H   0  0  0  0  0  0  0  0  0  0  0  0
   -1.2430   -1.2600    1.6190 H   0  0  0  0  0  0  0  0  0  0  0  0
    0.6480   -2.3890    3.7320 H   0  0  0  0  0  0  0  0  0  0  0  0
   -1.1080   -2.1710    3.9210 H   0  0  0  0  0  0  0  0  0  0  0  0
   -0.4800   -3.3390    2.7350 H   0  0  0  0  0  0  0  0  0  0  0  0
    0.9100    0.0630    3.3310 H   0  0  0  0  0  0  0  0  0  0  0  0
   -0.0310    0.8600    2.0470 H   0  0  0  0  0  0  0  0  0  0  0  0
   -0.8460    0.2820    3.5200 H   0  0  0  0  0  0  0  0  0  0  0  0
    4.1130   -0.4430   -2.3190 H   0  0  0  0  0  0  0  0  0  0  0  0
    5.7580   -0.3850    0.2500 H   0  0  0  0  0  0  0  0  0  0  0  0
    6.4420   -0.2860   -1.3900 H   0  0  0  0  0  0  0  0  0  0  0  0
    5.0290    1.7570   -1.8110 H   0  0  0  0  0  0  0  0  0  0  0  0
    6.6040    1.5890    1.8020 H   0  0  0  0  0  0  0  0  0  0  0  0
    6.5100    3.3610    1.5770 H   0  0  0  0  0  0  0  0  0  0  0  0
    7.4290    1.6460   -0.4000 H   0  0  0  0  0  0  0  0  0  0  0  0
    6.5930    3.1910   -0.7730 H   0  0  0  0  0  0  0  0  0  0  0  0
    3.7920   -2.8630   -1.7240 H   0  0  0  0  0  0  0  0  0  0  0  0
    5.4750   -2.4700   -2.1480 H   0  0  0  0  0  0  0  0  0  0  0  0
   -4.9500   -1.4440   -0.0550 H   0  0  0  0  0  0  0  0  0  0  0  0
   -3.9920   -0.7860    1.2940 H   0  0  0  0  0  0  0  0  0  0  0  0
   -5.6020    1.0860    1.5240 H   0  0  0  0  0  0  0  0  0  0  0  0
   -6.4200   -0.4860    1.6970 H   0  0  0  0  0  0  0  0  0  0  0  0
   -0.4720   -1.2570   -1.5490 H   0  0  0  0  0  0  0  0  0  0  0  0
    3.3580   -0.4140    0.5020 H   0  0  0  0  0  0  0  0  0  0  0  0
    4.1680    2.6280    2.0390 H   0  0  0  0  0  0  0  0  0  0  0  0
    5.3390   -3.7270   -0.1210 H   0  0  0  0  0  0  0  0  0  0  0  0
 16 17  1  0  0  0  0
 16 25  1  0  0  0  0
 14 17  1  0  0  0  0
 18 28  1  0  0  0  0
 11 29  2  0  0  0  0
  1 22  1  0  0  0  0
 15 25  1  0  0  0  0
 12 18  1  0  0  0  0
 12 13  1  0  0  0  0
 12 24  1  0  0  0  0
  2  3  1  0  0  0  0
  1  2  1  0  0  0  0
 13 14  1  0  0  0  0
 14 15  1  0  0  0  0
 11 24  1  0  0  0  0
  6 11  1  0  0  0  0
  3  4  1  0  0  0  0
  1 21  1  0  0  0  0
  1 20  1  0  0  0  0
 15 27  2  0  0  0  0
  6 23  1  0  0  0  0
  5 23  1  0  0  0  0
  6  7  1  0  0  0  0
  7  8  1  0  0  0  0
  5 26  1  0  0  0  0
  4 26  1  0  0  0  0
  5 30  2  0  0  0  0
  4 19  1  0  0  0  0
 19 20  1  0  0  0  0
  8 10  1  0  0  0  0
  8  9  1  0  0  0  0
  2 31  1  0  0  0  0
  2 32  1  0  0  0  0
  3 33  1  0  0  0  0
  3 34  1  0  0  0  0
  4 35  1  0  0  0  0
  6 36  1  0  0  0  0
  7 37  1  0  0  0  0
  7 38  1  0  0  0  0
  8 39  1  0  0  0  0
  9 40  1  0  0  0  0
  9 41  1  0  0  0  0
  9 42  1  0  0  0  0
 10 43  1  0  0  0  0
 10 44  1  0  0  0  0
 10 45  1  0  0  0  0
 12 46  1  0  0  0  0
 13 47  1  0  0  0  0
 13 48  1  0  0  0  0
 14 49  1  0  0  0  0
 16 50  1  0  0  0  0
 16 51  1  0  0  0  0
 17 52  1  0  0  0  0
 17 53  1  0  0  0  0
 18 54  1  0  0  0  0
 18 55  1  0  0  0  0
 19 56  1  0  0  0  0
 19 57  1  0  0  0  0
 20 58  1  0  0  0  0
 20 59  1  0  0  0  0
 23 60  1  0  0  0  0
 24 61  1  0  0  0  0
 25 62  1  0  0  0  0
 28 63  1  0  0  0  0
M  END
> <OPENEYE_ISO_SMILES>
CC(C)C[C@@H](C(=O)N[C@@H](C[C@@H]1CCNC1=O)CO)NC(=O)OC2CCC(CC2)(F)F

> <OPENEYE_INCHI>
InChI=1S/C20H33F2N3O5/c1-12(2)9-16(25-19(29)30-15-3-6-20(21,22)7-4-15)18(28)24-14(11-26)10-13-5-8-23-17(13)27/h12-16,26H,3-11H2,1-2H3,(H,23,27)(H,24,28)(H,25,29)/t13-,14-,16-/m0/s1

> <OPENEYE_INCHIKEY>
HMCDMSXQVSNUNZ-DZKIICNBSA-N

> <FORMULA>
C20H33F2N3O5

$$$$
