5IL
  -OEChem-02242320013D

 49 52  0     0  0  0  0  0  0999 V2000
    5.2200   -1.3730   -0.0570 C   0  0  0  0  0  0  0  0  0  0  0  0
    4.8830   -0.0430   -0.2200 C   0  0  0  0  0  0  0  0  0  0  0  0
    3.5530    0.3450   -0.2590 C   0  0  0  0  0  0  0  0  0  0  0  0
    2.5530   -0.6120   -0.1330 C   0  0  0  0  0  0  0  0  0  0  0  0
    2.8950   -1.9670    0.0330 C   0  0  0  0  0  0  0  0  0  0  0  0
    4.2320   -2.3390    0.0640 C   0  0  0  0  0  0  0  0  0  0  0  0
    1.1240   -0.2330   -0.1690 C   0  0  0  0  0  0  0  0  0  0  0  0
    0.0960   -1.2950   -0.0300 C   0  0  0  0  0  0  0  0  0  0  0  0
    1.8220   -2.9780    0.1590 C   0  0  0  0  0  0  0  0  0  0  0  0
   -1.7600   -0.0800    0.8880 C   0  0  0  0  0  0  0  0  0  0  0  0
   -0.9660    0.3620    1.9380 C   0  0  0  0  0  0  0  0  0  0  0  0
   -1.4840    1.2390    2.8730 C   0  0  0  0  0  0  0  0  0  0  0  0
   -2.7910    1.6780    2.7670 C   0  0  0  0  0  0  0  0  0  0  0  0
   -3.5890    1.2430    1.7250 C   0  0  0  0  0  0  0  0  0  0  0  0
   -3.0800    0.3630    0.7820 C   0  0  0  0  0  0  0  0  0  0  0  0
   -4.3470    1.0520   -1.0910 C   0  0  0  0  0  0  0  0  0  0  0  0
   -5.1570    0.5230   -2.2760 C   0  0  0  0  0  0  0  0  0  0  0  0
   -5.8330   -1.3920   -0.9590 C   0  0  0  0  0  0  0  0  0  0  0  0
   -5.0230   -0.8630    0.2260 C   0  0  0  0  0  0  0  0  0  0  0  0
    0.4610   -2.5900    0.1280 C   0  0  0  0  0  0  0  0  0  0  0  0
   -1.2380   -0.9620   -0.0610 N   0  0  0  0  0  0  0  0  0  0  0  0
   -3.8850   -0.0780   -0.2720 N   0  0  0  0  0  0  0  0  0  0  0  0
   -6.2950   -0.2620   -1.7780 N   0  0  0  0  0  0  0  0  0  0  0  0
    2.3550    2.1810   -1.9220 N   0  0  0  0  0  0  0  0  0  0  0  0
    2.1660    2.3420    0.5340 O   0  0  0  0  0  0  0  0  0  0  0  0
    4.3580    2.7480   -0.5960 O   0  0  0  0  0  0  0  0  0  0  0  0
    2.1120   -4.1520    0.2930 O   0  0  0  0  0  0  0  0  0  0  0  0
    0.7970    0.9280   -0.3110 O   0  0  0  0  0  0  0  0  0  0  0  0
    3.1310    2.0430   -0.4660 S   0  0  0  0  0  0  0  0  0  0  0  0
    6.2590   -1.6630   -0.0290 H   0  0  0  0  0  0  0  0  0  0  0  0
    5.6620    0.7000   -0.3170 H   0  0  0  0  0  0  0  0  0  0  0  0
    4.5030   -3.3770    0.1900 H   0  0  0  0  0  0  0  0  0  0  0  0
    0.0550    0.0210    2.0240 H   0  0  0  0  0  0  0  0  0  0  0  0
   -0.8650    1.5820    3.6890 H   0  0  0  0  0  0  0  0  0  0  0  0
   -3.1890    2.3630    3.5010 H   0  0  0  0  0  0  0  0  0  0  0  0
   -4.6090    1.5880    1.6470 H   0  0  0  0  0  0  0  0  0  0  0  0
   -3.4860    1.6110   -1.4590 H   0  0  0  0  0  0  0  0  0  0  0  0
   -4.9740    1.7070   -0.4860 H   0  0  0  0  0  0  0  0  0  0  0  0
   -5.5250    1.3610   -2.8690 H   0  0  0  0  0  0  0  0  0  0  0  0
   -4.5220   -0.1100   -2.8970 H   0  0  0  0  0  0  0  0  0  0  0  0
   -5.2060   -2.0470   -1.5640 H   0  0  0  0  0  0  0  0  0  0  0  0
   -6.6940   -1.9510   -0.5910 H   0  0  0  0  0  0  0  0  0  0  0  0
   -5.6570   -0.2290    0.8460 H   0  0  0  0  0  0  0  0  0  0  0  0
   -4.6550   -1.7000    0.8190 H   0  0  0  0  0  0  0  0  0  0  0  0
   -0.3040   -3.3460    0.2230 H   0  0  0  0  0  0  0  0  0  0  0  0
   -1.8160   -1.3380   -0.7430 H   0  0  0  0  0  0  0  0  0  0  0  0
   -6.9370    0.3200   -1.2610 H   0  0  0  0  0  0  0  0  0  0  0  0
    2.2160    1.3960   -2.4740 H   0  0  0  0  0  0  0  0  0  0  0  0
    2.0390    3.0480   -2.2230 H   0  0  0  0  0  0  0  0  0  0  0  0
  9 27  2  0  0  0  0
  9 20  1  0  0  0  0
  8 20  2  0  0  0  0
  5  9  1  0  0  0  0
  8 21  1  0  0  0  0
 10 21  1  0  0  0  0
  7  8  1  0  0  0  0
 10 11  2  0  0  0  0
 11 12  1  0  0  0  0
 10 15  1  0  0  0  0
 16 17  1  0  0  0  0
 16 22  1  0  0  0  0
  5  6  2  0  0  0  0
  4  5  1  0  0  0  0
 17 23  1  0  0  0  0
 12 13  2  0  0  0  0
  1  6  1  0  0  0  0
 15 22  1  0  0  0  0
 14 15  2  0  0  0  0
  4  7  1  0  0  0  0
  7 28  2  0  0  0  0
 19 22  1  0  0  0  0
  3  4  2  0  0  0  0
 13 14  1  0  0  0  0
 18 23  1  0  0  0  0
  1  2  2  0  0  0  0
 18 19  1  0  0  0  0
  2  3  1  0  0  0  0
  3 29  1  0  0  0  0
 25 29  2  0  0  0  0
 26 29  2  0  0  0  0
 24 29  1  0  0  0  0
  1 30  1  0  0  0  0
  2 31  1  0  0  0  0
  6 32  1  0  0  0  0
 11 33  1  0  0  0  0
 12 34  1  0  0  0  0
 13 35  1  0  0  0  0
 14 36  1  0  0  0  0
 16 37  1  0  0  0  0
 16 38  1  0  0  0  0
 17 39  1  0  0  0  0
 17 40  1  0  0  0  0
 18 41  1  0  0  0  0
 18 42  1  0  0  0  0
 19 43  1  0  0  0  0
 19 44  1  0  0  0  0
 20 45  1  0  0  0  0
 21 46  1  0  0  0  0
 23 47  1  0  0  0  0
 24 48  1  0  0  0  0
 24 49  1  0  0  0  0
M  END
> <OPENEYE_ISO_SMILES>
c1ccc(c(c1)NC2=CC(=O)c3cccc(c3C2=O)S(=O)(=O)N)N4CCNCC4

> <OPENEYE_INCHI>
InChI=1S/C20H20N4O4S/c21-29(27,28)18-7-3-4-13-17(25)12-15(20(26)19(13)18)23-14-5-1-2-6-16(14)24-10-8-22-9-11-24/h1-7,12,22-23H,8-11H2,(H2,21,27,28)

> <OPENEYE_INCHIKEY>
JAMVFKPFIUKEMG-UHFFFAOYSA-N

> <FORMULA>
C20H20N4O4S

$$$$
