@<TRIPOS>MOLECULE
/home/pku/3cl/gett_pdb/7FR5/7FR5_mol2/ligand/7FR5_WWT.pdb
 28 29 0 0 0
SMALL
GASTEIGER

@<TRIPOS>ATOM
      1  C16      -46.8050  -29.2660    4.9450 C.ar  201  WWT201      0.1235
      2  C13      -48.7510  -29.0220    5.8510 C.ar  201  WWT201      0.2952
      3  C11      -46.6300  -29.1900    6.2860 C.ar  201  WWT201      0.1612
      4  C01      -45.7880  -32.8640    1.3110 C.3   201  WWT201     -0.0639
      5  C02      -45.3370  -32.0450    0.1070 C.3   201  WWT201     -0.0402
      6  C03      -45.1790  -30.5650    0.4300 C.3   201  WWT201      0.0116
      7  C05      -45.9290  -29.5230    2.5840 C.2   201  WWT201      0.2463
      8  C07      -45.7070  -29.4130    4.0810 C.ar  201  WWT201      0.0672
      9  C08      -44.4580  -29.4930    4.6670 C.ar  201  WWT201     -0.0293
     10  C09      -44.3420  -29.4110    6.0510 C.ar  201  WWT201      0.0307
     11  N04      -45.0210  -30.3840    1.8550 N.am  201  WWT201     -0.3113
     12  N10      -45.3970  -29.2680    6.8200 N.ar  201  WWT201     -0.2358
     13  N12      -47.8550  -29.0440    6.8370 N.ar  201  WWT201     -0.2928
     14  N15      -48.1240  -29.1610    4.6850 N.ar  201  WWT201     -0.1928
     15  O06      -46.8360  -28.9780    2.0520 O.2   201  WWT201     -0.2701
     16  O14      -50.1250  -28.9060    5.9960 O.3   201  WWT201     -0.4796
     17 H012      -46.0190  -33.8710    0.9860 H     201  WWT201      0.0230
     18 H013      -46.6730  -32.4120    1.7480 H     201  WWT201      0.0230
     19 H011      -44.9940  -32.8990    2.0530 H     201  WWT201      0.0230
     20 H021      -44.3800  -32.4230   -0.2300 H     201  WWT201      0.0278
     21 H022      -46.0620  -32.1530   -0.6880 H     201  WWT201      0.0278
     22 H032      -46.0570  -30.0310    0.0820 H     201  WWT201      0.0462
     23 H031      -44.2990  -30.1830   -0.0640 H     201  WWT201      0.0462
     24 H081      -43.5820  -29.6160    4.0550 H     201  WWT201      0.0641
     25 H091      -43.3730  -29.4600    6.5070 H     201  WWT201      0.0830
     26 H041      -44.2680  -30.8400    2.3410 H     201  WWT201      0.1490
     27 H121      -48.0700  -28.9750    7.8080 H     201  WWT201      0.1718
     28 H141      -50.4580  -28.3610    5.2970 H     201  WWT201      0.2953
@<TRIPOS>BOND
     1    21     5    1
     2    20     5    1
     3    23     6    1
     4    22     6    1
     5     5     6    1
     6     5     4    1
     7     6    11    1
     8    17     4    1
     9     4    18    1
    10     4    19    1
    11    11    26    1
    12    11     7   am
    13    15     7    2
    14     7     8    1
    15    24     9    1
    16     8     9   ar
    17     8     1   ar
    18     9    10   ar
    19    14     1   ar
    20    14     2   ar
    21     1     3   ar
    22    28    16    1
    23     2    16    1
    24     2    13   ar
    25    10    25    1
    26    10    12   ar
    27     3    12   ar
    28     3    13   ar
    29    13    27    1
