@<TRIPOS>MOLECULE
/home/pku/3cl/gett_pdb/7RLS/7RLS_mol2/ligand/7RLS_5YN.pdb
 25 27 0 0 0
SMALL
GASTEIGER

@<TRIPOS>ATOM
      1  C16        8.1130   -0.6910   18.4640 C.ar  401  5YN401      0.0268
      2  C19       15.8140   -3.7610   17.3700 C.ar  401  5YN401      0.3715
      3  C2        14.2610   -0.4470   18.0650 C.2   401  5YN401      0.2672
      4  C1        14.6780   -1.6330   17.2300 C.ar  401  5YN401      0.1442
      5  C6        10.8540   -1.3580   18.4040 C.3   401  5YN401      0.1123
      6  C5        12.2590   -1.7490   18.8250 C.3   401  5YN401      0.1152
      7  C8        11.2060    0.9080   19.2770 C.3   401  5YN401      0.1123
      8  C9        12.6520    0.5510   19.5980 C.3   401  5YN401      0.1152
      9  C10        8.9960   -0.0620   19.3650 C.ar  401  5YN401      0.0497
     10  C11        8.4610    0.7920   20.3510 C.ar  401  5YN401      0.0268
     11  C12        7.0920    1.0030   20.4260 C.ar  401  5YN401      0.0703
     12  C13        6.2050    0.3900   19.5470 C.ar  401  5YN401      0.0788
     13  O3        14.9570    0.5770   18.0180 O.2   401  5YN401     -0.2682
     14  C14        6.7480   -0.4550   18.5700 C.ar  401  5YN401      0.0703
     15  C22       14.8620   -2.9830   15.2180 C.ar  401  5YN401      0.2848
     16  C24       14.4080   -1.7860   15.9080 C.ar  401  5YN401      0.0865
     17  N18       15.3430   -2.6010   17.9470 N.ar  401  5YN401     -0.1860
     18  N21       15.5480   -3.8890   16.0140 N.ar  401  5YN401     -0.1517
     19  N4        13.1200   -0.5640   18.7670 N.am  401  5YN401     -0.2713
     20  N7        10.3700   -0.2790   19.2930 N.pl3 401  5YN401     -0.3040
     21  O20       16.4140   -4.6120   18.0080 O.2   401  5YN401     -0.2425
     22  O23       14.6800   -3.2350   14.0230 O.2   401  5YN401     -0.2650
     23 CL15        5.6580   -1.2280   17.4410 Cl    401  5YN401     -0.0813
     24 CL17        4.4880    0.6740   19.6680 Cl    401  5YN401     -0.0805
     25 CL25        6.4670    2.0690   21.6770 Cl    401  5YN401     -0.0813
@<TRIPOS>BOND
     1    22    15    2
     2    15    16   ar
     3    15    18   ar
     4    16     4   ar
     5    18     2   ar
     6     4    17   ar
     7     4     3    1
     8     2    17   ar
     9     2    21    2
    10    23    14    1
    11    13     3    2
    12     3    19   am
    13     5     6    1
    14     5    20    1
    15     1    14   ar
    16     1     9   ar
    17    14    12   ar
    18    19     6    1
    19    19     8    1
    20     7    20    1
    21     7     8    1
    22    20     9    1
    23     9    10   ar
    24    12    24    1
    25    12    11   ar
    26    10    11   ar
    27    11    25    1
