T8V
  -OEChem-02242320043D

 18 18  0     0  0  0  0  0  0999 V2000
   -2.3440   -0.2250   -0.1590 N   0  0  0  0  0  0  0  0  0  0  0  0
   -1.2630   -2.2940    0.1180 C   0  0  0  0  0  0  0  0  0  0  0  0
   -2.4010   -1.5420   -0.1080 C   0  0  0  0  0  0  0  0  0  0  0  0
   -1.2100    0.4280    0.0000 C   0  0  0  0  0  0  0  0  0  0  0  0
    1.1800    0.4370    0.4000 N   0  0  0  0  0  0  0  0  0  0  0  0
    3.6140    0.6960    0.0480 C   0  0  0  0  0  0  0  0  0  0  0  0
    2.3440   -1.2080   -0.5270 O   0  0  0  0  0  0  0  0  0  0  0  0
    2.3350   -0.0940   -0.0470 C   0  0  0  0  0  0  0  0  0  0  0  0
   -0.0230   -0.2590    0.2310 C   0  0  0  0  0  0  0  0  0  0  0  0
   -0.0490   -1.6490    0.2910 C   0  0  0  0  0  0  0  0  0  0  0  0
   -1.1980    2.1620   -0.0790 Cl  0  0  0  0  0  0  0  0  0  0  0  0
   -1.3200   -3.3710    0.1580 H   0  0  0  0  0  0  0  0  0  0  0  0
   -3.3500   -2.0400   -0.2430 H   0  0  0  0  0  0  0  0  0  0  0  0
    1.1820    1.3020    0.8390 H   0  0  0  0  0  0  0  0  0  0  0  0
    3.4100    1.6650    0.5030 H   0  0  0  0  0  0  0  0  0  0  0  0
    4.3330    0.1520    0.6610 H   0  0  0  0  0  0  0  0  0  0  0  0
    4.0260    0.8430   -0.9500 H   0  0  0  0  0  0  0  0  0  0  0  0
    0.8560   -2.2120    0.4690 H   0  0  0  0  0  0  0  0  0  0  0  0
  6  8  1  0  0  0  0
  7  8  2  0  0  0  0
  5  8  1  0  0  0  0
  5  9  1  0  0  0  0
  9 10  2  0  0  0  0
  2 10  1  0  0  0  0
  2  3  2  0  0  0  0
  1  3  1  0  0  0  0
  1  4  2  0  0  0  0
  4  9  1  0  0  0  0
  4 11  1  0  0  0  0
  2 12  1  0  0  0  0
  3 13  1  0  0  0  0
  5 14  1  0  0  0  0
  6 15  1  0  0  0  0
  6 16  1  0  0  0  0
  6 17  1  0  0  0  0
 10 18  1  0  0  0  0
M  END
> <OPENEYE_ISO_SMILES>
CC(=O)Nc1cccnc1Cl

> <OPENEYE_INCHI>
InChI=1S/C7H7ClN2O/c1-5(11)10-6-3-2-4-9-7(6)8/h2-4H,1H3,(H,10,11)

> <OPENEYE_INCHIKEY>
KWZIDENWDCKKPW-UHFFFAOYSA-N

> <FORMULA>
C7H7ClN2O

$$$$
