T7Y
  -OEChem-02242320043D

 30 31  0     0  0  0  0  0  0999 V2000
    2.0480   -0.2960   -0.0380 N   0  0  0  0  0  0  0  0  0  0  0  0
   -0.6610    2.1620    0.3500 C   0  0  0  0  0  0  0  0  0  0  0  0
    0.6040    1.6240    0.2060 C   0  0  0  0  0  0  0  0  0  0  0  0
    0.7670    0.2480    0.1080 C   0  0  0  0  0  0  0  0  0  0  0  0
   -0.3400   -0.5860    0.1530 C   0  0  0  0  0  0  0  0  0  0  0  0
    2.3420   -1.7340   -0.0360 C   0  0  0  0  0  0  0  0  0  0  0  0
    4.3680   -0.4820   -0.3180 C   0  0  0  0  0  0  0  0  0  0  0  0
   -2.7290   -0.8810    0.3440 N   0  0  0  0  0  0  0  0  0  0  0  0
   -5.1310   -1.3240   -0.0410 C   0  0  0  0  0  0  0  0  0  0  0  0
   -3.9490    0.5680   -0.8110 O   0  0  0  0  0  0  0  0  0  0  0  0
   -3.8950   -0.4770   -0.1980 C   0  0  0  0  0  0  0  0  0  0  0  0
    3.1670    0.4310   -0.2040 C   0  0  0  0  0  0  0  0  0  0  0  0
   -1.6090   -0.0430    0.2980 C   0  0  0  0  0  0  0  0  0  0  0  0
   -1.7660    1.3340    0.3960 C   0  0  0  0  0  0  0  0  0  0  0  0
    3.8630   -1.8440    0.2150 C   0  0  0  0  0  0  0  0  0  0  0  0
    3.2070    1.6420   -0.2530 O   0  0  0  0  0  0  0  0  0  0  0  0
   -0.7850    3.2310    0.4310 H   0  0  0  0  0  0  0  0  0  0  0  0
    1.4650    2.2740    0.1700 H   0  0  0  0  0  0  0  0  0  0  0  0
   -0.2150   -1.6560    0.0760 H   0  0  0  0  0  0  0  0  0  0  0  0
    1.7910   -2.2310    0.7620 H   0  0  0  0  0  0  0  0  0  0  0  0
    2.0860   -2.1730   -1.0000 H   0  0  0  0  0  0  0  0  0  0  0  0
    4.6810   -0.5720   -1.3580 H   0  0  0  0  0  0  0  0  0  0  0  0
    5.1900   -0.1130    0.2960 H   0  0  0  0  0  0  0  0  0  0  0  0
   -2.6650   -1.7520    0.7660 H   0  0  0  0  0  0  0  0  0  0  0  0
   -5.3600   -1.4420    1.0180 H   0  0  0  0  0  0  0  0  0  0  0  0
   -5.9700   -0.8400   -0.5420 H   0  0  0  0  0  0  0  0  0  0  0  0
   -4.9590   -2.3040   -0.4870 H   0  0  0  0  0  0  0  0  0  0  0  0
   -2.7530    1.7570    0.5130 H   0  0  0  0  0  0  0  0  0  0  0  0
    4.0760   -1.9490    1.2790 H   0  0  0  0  0  0  0  0  0  0  0  0
    4.2940   -2.6690   -0.3510 H   0  0  0  0  0  0  0  0  0  0  0  0
  9 11  1  0  0  0  0
 10 11  2  0  0  0  0
  8 11  1  0  0  0  0
  8 13  1  0  0  0  0
 13 14  2  0  0  0  0
  2 14  1  0  0  0  0
  2  3  2  0  0  0  0
  3  4  1  0  0  0  0
  4  5  2  0  0  0  0
  5 13  1  0  0  0  0
  1  4  1  0  0  0  0
  1  6  1  0  0  0  0
  6 15  1  0  0  0  0
  7 15  1  0  0  0  0
  7 12  1  0  0  0  0
  1 12  1  0  0  0  0
 12 16  2  0  0  0  0
  2 17  1  0  0  0  0
  3 18  1  0  0  0  0
  5 19  1  0  0  0  0
  6 20  1  0  0  0  0
  6 21  1  0  0  0  0
  7 22  1  0  0  0  0
  7 23  1  0  0  0  0
  8 24  1  0  0  0  0
  9 25  1  0  0  0  0
  9 26  1  0  0  0  0
  9 27  1  0  0  0  0
 14 28  1  0  0  0  0
 15 29  1  0  0  0  0
 15 30  1  0  0  0  0
M  END
> <OPENEYE_ISO_SMILES>
CC(=O)Nc1cccc(c1)N2CCCC2=O

> <OPENEYE_INCHI>
InChI=1S/C12H14N2O2/c1-9(15)13-10-4-2-5-11(8-10)14-7-3-6-12(14)16/h2,4-5,8H,3,6-7H2,1H3,(H,13,15)

> <OPENEYE_INCHIKEY>
CNXMKORZVSCVGQ-UHFFFAOYSA-N

> <FORMULA>
C12H14N2O2

$$$$
