WUJ
  -OEChem-02242320043D

 18 18  0     0  0  0  0  0  0999 V2000
    3.3470   -1.1600    0.0180 N   0  0  0  0  0  0  0  0  0  0  0  0
    2.5050   -0.1070    0.0000 C   0  0  0  0  0  0  0  0  0  0  0  0
    1.1730   -0.3100    0.0190 N   0  0  0  0  0  0  0  0  0  0  0  0
    0.2580    0.8340   -0.0000 C   0  0  0  0  0  0  0  0  0  0  0  0
   -1.1650    0.3400    0.0270 C   0  0  0  0  0  0  0  0  0  0  0  0
   -1.8970    0.1090    1.1320 C   0  0  0  0  0  0  0  0  0  0  0  0
   -3.1650   -0.3420    0.6970 C   0  0  0  0  0  0  0  0  0  0  0  0
   -3.1320   -0.3590   -0.6470 C   0  0  0  0  0  0  0  0  0  0  0  0
   -1.9210    0.0600   -1.0480 O   0  0  0  0  0  0  0  0  0  0  0  0
    2.9480    1.0250   -0.0330 O   0  0  0  0  0  0  0  0  0  0  0  0
    2.9940   -2.0630    0.0440 H   0  0  0  0  0  0  0  0  0  0  0  0
    4.3060   -1.0140   -0.0000 H   0  0  0  0  0  0  0  0  0  0  0  0
    0.8200   -1.2130    0.0450 H   0  0  0  0  0  0  0  0  0  0  0  0
    0.4410    1.4610    0.8730 H   0  0  0  0  0  0  0  0  0  0  0  0
    0.4230    1.4160   -0.9070 H   0  0  0  0  0  0  0  0  0  0  0  0
   -1.5770    0.2410    2.1550 H   0  0  0  0  0  0  0  0  0  0  0  0
   -3.9990   -0.6190    1.3240 H   0  0  0  0  0  0  0  0  0  0  0  0
   -3.9440   -0.6560   -1.2950 H   0  0  0  0  0  0  0  0  0  0  0  0
  2 10  2  0  0  0  0
  1  2  1  0  0  0  0
  2  3  1  0  0  0  0
  3  4  1  0  0  0  0
  4  5  1  0  0  0  0
  5  6  2  0  0  0  0
  5  9  1  0  0  0  0
  6  7  1  0  0  0  0
  8  9  1  0  0  0  0
  7  8  2  0  0  0  0
  1 11  1  0  0  0  0
  1 12  1  0  0  0  0
  3 13  1  0  0  0  0
  4 14  1  0  0  0  0
  4 15  1  0  0  0  0
  6 16  1  0  0  0  0
  7 17  1  0  0  0  0
  8 18  1  0  0  0  0
M  END
> <OPENEYE_ISO_SMILES>
c1cc(oc1)CNC(=O)N

> <OPENEYE_INCHI>
InChI=1S/C6H8N2O2/c7-6(9)8-4-5-2-1-3-10-5/h1-3H,4H2,(H3,7,8,9)

> <OPENEYE_INCHIKEY>
AUHRREWMYVOMRT-UHFFFAOYSA-N

> <FORMULA>
C6H8N2O2

$$$$
