MUK
  -OEChem-02242320033D

 28 29  0     0  0  0  0  0  0999 V2000
   -1.8760   -1.2970    0.1260 N   0  0  0  0  0  0  0  0  0  0  0  0
    0.4600   -1.3840    0.0730 N   0  0  0  0  0  0  0  0  0  0  0  0
   -3.0200   -0.6360    0.0720 C   0  0  0  0  0  0  0  0  0  0  0  0
   -0.7190   -0.6600    0.0130 C   0  0  0  0  0  0  0  0  0  0  0  0
    1.6900   -0.7190    0.0720 C   0  0  0  0  0  0  0  0  0  0  0  0
    1.8110    0.5210    0.6880 C   0  0  0  0  0  0  0  0  0  0  0  0
    3.0270    1.1750    0.6850 C   0  0  0  0  0  0  0  0  0  0  0  0
    4.0060   -0.6340   -0.5450 C   0  0  0  0  0  0  0  0  0  0  0  0
   -1.7010    2.8660   -0.4120 C   0  0  0  0  0  0  0  0  0  0  0  0
   -1.7720    1.3730   -0.2190 C   0  0  0  0  0  0  0  0  0  0  0  0
   -2.9990    0.7390   -0.1050 C   0  0  0  0  0  0  0  0  0  0  0  0
   -0.6640    0.6530   -0.1570 N   0  0  0  0  0  0  0  0  0  0  0  0
    4.1230    0.5990    0.0700 C   0  0  0  0  0  0  0  0  0  0  0  0
    2.7940   -1.2970   -0.5400 C   0  0  0  0  0  0  0  0  0  0  0  0
   -4.3310   -1.3680    0.2010 C   0  0  0  0  0  0  0  0  0  0  0  0
    0.4330   -2.3530    0.1160 H   0  0  0  0  0  0  0  0  0  0  0  0
    0.9550    0.9710    1.1690 H   0  0  0  0  0  0  0  0  0  0  0  0
    3.1220    2.1390    1.1640 H   0  0  0  0  0  0  0  0  0  0  0  0
    4.8630   -1.0820   -1.0250 H   0  0  0  0  0  0  0  0  0  0  0  0
   -1.6560    3.3560    0.5610 H   0  0  0  0  0  0  0  0  0  0  0  0
   -0.8080    3.1160   -0.9870 H   0  0  0  0  0  0  0  0  0  0  0  0
   -2.5860    3.2060   -0.9500 H   0  0  0  0  0  0  0  0  0  0  0  0
   -3.9180    1.3030   -0.1530 H   0  0  0  0  0  0  0  0  0  0  0  0
    5.0730    1.1130    0.0690 H   0  0  0  0  0  0  0  0  0  0  0  0
    2.7040   -2.2630   -1.0160 H   0  0  0  0  0  0  0  0  0  0  0  0
   -4.6190   -1.4150    1.2510 H   0  0  0  0  0  0  0  0  0  0  0  0
   -5.0990   -0.8410   -0.3640 H   0  0  0  0  0  0  0  0  0  0  0  0
   -4.2220   -2.3800   -0.1910 H   0  0  0  0  0  0  0  0  0  0  0  0
  9 10  1  0  0  0  0
 10 11  2  0  0  0  0
 10 12  1  0  0  0  0
  3 11  1  0  0  0  0
  4 12  2  0  0  0  0
  3 15  1  0  0  0  0
  1  3  2  0  0  0  0
  1  4  1  0  0  0  0
  2  4  1  0  0  0  0
  2  5  1  0  0  0  0
  5 14  2  0  0  0  0
  5  6  1  0  0  0  0
  8 14  1  0  0  0  0
  6  7  2  0  0  0  0
  8 13  2  0  0  0  0
  7 13  1  0  0  0  0
  2 16  1  0  0  0  0
  6 17  1  0  0  0  0
  7 18  1  0  0  0  0
  8 19  1  0  0  0  0
  9 20  1  0  0  0  0
  9 21  1  0  0  0  0
  9 22  1  0  0  0  0
 11 23  1  0  0  0  0
 13 24  1  0  0  0  0
 14 25  1  0  0  0  0
 15 26  1  0  0  0  0
 15 27  1  0  0  0  0
 15 28  1  0  0  0  0
M  END
> <OPENEYE_ISO_SMILES>
Cc1cc(nc(n1)Nc2ccccc2)C

> <OPENEYE_INCHI>
InChI=1S/C12H13N3/c1-9-8-10(2)14-12(13-9)15-11-6-4-3-5-7-11/h3-8H,1-2H3,(H,13,14,15)

> <OPENEYE_INCHIKEY>
ZLIBICFPKPWGIZ-UHFFFAOYSA-N

> <FORMULA>
C12H13N3

$$$$
