@<TRIPOS>MOLECULE
/home/pku/3cl/gett_pdb/5SPX/5SPX_mol2/ligand/5SPX_QIW.pdb
 36 38 0 0 0
SMALL
GASTEIGER

@<TRIPOS>ATOM
      1  C18      -41.6410  -30.8990    1.0060 C.3   201  QIW201     -0.0200
      2  C17      -43.1200  -31.2580    1.0170 C.ar  201  QIW201      0.0694
      3  C14      -43.6060  -30.7320    3.5290 C.2   201  QIW201      0.0755
      4  C13      -43.9890  -31.1810    2.1200 C.ar  201  QIW201      0.0455
      5  C12      -45.2530  -31.6130    1.6500 C.ar  201  QIW201      0.0791
      6  C11      -48.4550  -32.8070    3.4580 C.ar  201  QIW201      0.0224
      7  C10      -47.3290  -32.8350    2.6080 C.ar  201  QIW201     -0.0402
      8  C01      -48.7760  -35.8960    2.8070 C.3   201  QIW201     -0.0612
      9  C02      -49.9080  -35.1050    3.4370 C.3   201  QIW201     -0.0285
     10  C03      -49.5080  -33.6860    3.8250 C.ar  201  QIW201     -0.0210
     11  C04      -50.2740  -33.0100    4.7300 C.ar  201  QIW201      0.0073
     12  C06      -48.6920  -31.6600    4.1930 C.ar  201  QIW201      0.1384
     13  C08      -46.8410  -30.6030    3.3090 C.ar  201  QIW201      0.0391
     14  C09      -46.5110  -31.7000    2.5230 C.ar  201  QIW201      0.0195
     15  C21      -46.0610  -32.3830   -0.5600 C.3   201  QIW201      0.0309
     16  N05      -49.7840  -31.8180    4.9370 N.ar  201  QIW201     -0.3456
     17  N07      -47.8870  -30.6070    4.0970 N.ar  201  QIW201     -0.2368
     18  N19      -43.8210  -31.6910    0.0080 N.ar  201  QIW201     -0.1755
     19  N20      -45.0760  -31.8990    0.3780 N.ar  201  QIW201     -0.2658
     20  O15      -43.2570  -29.5410    3.7510 O.co2 201  QIW201     -0.5445
     21  O16      -43.6300  -31.5740    4.4660 O.co2 201  QIW201     -0.5445
     22 H183      -41.1250  -31.4850    1.7600 H     201  QIW201      0.0293
     23 H182      -41.5220  -29.8430    1.2310 H     201  QIW201      0.0293
     24 H181      -41.2240  -31.1240    0.0300 H     201  QIW201      0.0293
     25 H101      -47.1280  -33.7140    2.0180 H     201  QIW201      0.0632
     26 H011      -49.0380  -36.9490    2.7840 H     201  QIW201      0.0233
     27 H012      -47.8980  -35.7490    3.4260 H     201  QIW201      0.0233
     28 H013      -48.5780  -35.5400    1.8080 H     201  QIW201      0.0233
     29 H022      -50.1500  -35.6140    4.3370 H     201  QIW201      0.0311
     30 H021      -50.8490  -35.1180    2.8740 H     201  QIW201      0.0311
     31 H041      -51.1280  -33.4550    5.1970 H     201  QIW201      0.0810
     32 H081      -46.2230  -29.7240    3.2840 H     201  QIW201      0.0837
     33 H211      -46.0210  -31.7610   -1.4470 H     201  QIW201      0.0473
     34 H213      -47.0440  -32.3480   -0.1190 H     201  QIW201      0.0473
     35 H212      -45.8130  -33.4050   -0.8340 H     201  QIW201      0.0473
     36 H051      -50.1710  -31.1210    5.5400 H     201  QIW201      0.1668
@<TRIPOS>UNITY_ATOM_ATTR
21 1
charge -1
@<TRIPOS>BOND
     1    33    15    1
     2    35    15    1
     3    15    34    1
     4    15    19    1
     5    18    19   ar
     6    18     2   ar
     7    24     1    1
     8    19     5   ar
     9     1     2    1
    10     1    23    1
    11     1    22    1
    12     2     4   ar
    13     5     4   ar
    14     5    14    1
    15    28     8    1
    16    25     7    1
    17     4     3    1
    18    14     7   ar
    19    14    13   ar
    20     7     6   ar
    21    26     8    1
    22     8    27    1
    23     8     9    1
    24    30     9    1
    25    32    13    1
    26    13    17   ar
    27     9    10    1
    28     9    29    1
    29     6    10   ar
    30     6    12   ar
    31     3    20   ar
    32     3    21   ar
    33    10    11   ar
    34    17    12   ar
    35    12    16   ar
    36    11    16   ar
    37    11    31    1
    38    16    36    1
