W2Y
  -OEChem-02242320043D

 30 30  0     1  0  0  0  0  0999 V2000
    3.1330   -1.3940   -0.6620 N   0  0  0  0  0  0  0  0  0  0  0  0
    1.2550    2.0940   -0.4450 C   0  0  0  0  0  0  0  0  0  0  0  0
   -0.2030    2.0020    0.0170 C   0  0  0  0  0  0  0  0  0  0  0  0
   -3.0730   -0.1230    0.9800 C   0  0  0  0  0  0  0  0  0  0  0  0
    1.9940   -0.7150   -0.4230 C   0  0  0  0  0  0  0  0  0  0  0  0
    1.1030   -0.7160   -1.2460 O   0  0  0  0  0  0  0  0  0  0  0  0
    1.8260    0.0440    0.8680 C   0  0  1  0  0  0  0  0  0  0  0  0
    2.1680    1.5190    0.6410 C   0  0  0  0  0  0  0  0  0  0  0  0
   -0.4980    0.6080    0.3760 N   0  0  3  0  0  0  0  0  0  0  0  0
   -1.7880   -0.1820   -0.2980 S   0  0  0  0  0  0  0  0  0  0  0  0
   -1.3260   -1.5140   -0.4810 O   0  0  0  0  0  0  0  0  0  0  0  0
   -2.1510    0.6260   -1.4090 O   0  0  0  0  0  0  0  0  0  0  0  0
    0.3730   -0.0720    1.3440 C   0  0  1  0  0  0  0  0  0  0  0  0
   -0.0190   -1.5470    1.4400 C   0  0  0  0  0  0  0  0  0  0  0  0
    3.8460   -1.3930   -0.0040 H   0  0  0  0  0  0  0  0  0  0  0  0
    3.2400   -1.8860   -1.4910 H   0  0  0  0  0  0  0  0  0  0  0  0
    1.3820    1.5250   -1.3660 H   0  0  0  0  0  0  0  0  0  0  0  0
    1.5150    3.1380   -0.6230 H   0  0  0  0  0  0  0  0  0  0  0  0
   -0.3520    2.6430    0.8860 H   0  0  0  0  0  0  0  0  0  0  0  0
   -0.8630    2.3190   -0.7910 H   0  0  0  0  0  0  0  0  0  0  0  0
   -3.2470    0.9120    1.2730 H   0  0  0  0  0  0  0  0  0  0  0  0
   -3.9960   -0.5500    0.5870 H   0  0  0  0  0  0  0  0  0  0  0  0
   -2.7490   -0.6970    1.8480 H   0  0  0  0  0  0  0  0  0  0  0  0
    2.4920   -0.3710    1.6240 H   0  0  0  0  0  0  0  0  0  0  0  0
    3.2070    1.6060    0.3250 H   0  0  0  0  0  0  0  0  0  0  0  0
    2.0220    2.0720    1.5680 H   0  0  0  0  0  0  0  0  0  0  0  0
    0.2710    0.4000    2.3220 H   0  0  0  0  0  0  0  0  0  0  0  0
    0.3030   -2.0680    0.5380 H   0  0  0  0  0  0  0  0  0  0  0  0
    0.4620   -1.9960    2.3090 H   0  0  0  0  0  0  0  0  0  0  0  0
   -1.1010   -1.6300    1.5410 H   0  0  0  0  0  0  0  0  0  0  0  0
  4 10  1  0  0  0  0
 13 14  1  0  0  0  0
  3  9  1  0  0  0  0
  2  3  1  0  0  0  0
  9 10  1  0  0  0  0
 10 11  2  0  0  0  0
 10 12  2  0  0  0  0
  9 13  1  0  0  0  0
  7 13  1  0  0  0  0
  1  5  1  0  0  0  0
  2  8  1  0  0  0  0
  7  8  1  0  0  0  0
  5  7  1  0  0  0  0
  5  6  2  0  0  0  0
  1 15  1  0  0  0  0
  1 16  1  0  0  0  0
  2 17  1  0  0  0  0
  2 18  1  0  0  0  0
  3 19  1  0  0  0  0
  3 20  1  0  0  0  0
  4 21  1  0  0  0  0
  4 22  1  0  0  0  0
  4 23  1  0  0  0  0
  7 24  1  0  0  0  0
  8 25  1  0  0  0  0
  8 26  1  0  0  0  0
 13 27  1  0  0  0  0
 14 28  1  0  0  0  0
 14 29  1  0  0  0  0
 14 30  1  0  0  0  0
M  END
> <OPENEYE_ISO_SMILES>
C[C@H]1[C@H](CCCN1S(=O)(=O)C)C(=O)N

> <OPENEYE_INCHI>
InChI=1S/C8H16N2O3S/c1-6-7(8(9)11)4-3-5-10(6)14(2,12)13/h6-7H,3-5H2,1-2H3,(H2,9,11)/t6-,7-/m0/s1

> <OPENEYE_INCHIKEY>
ZHLDXLSBRBBGSZ-BQBZGAKWSA-N

> <FORMULA>
C8H16N2O3S

$$$$
