UX1
  -OEChem-02242320043D

 29 30  0     0  0  0  0  0  0999 V2000
   -0.9040    0.7960    0.4930 C   0  0  0  0  0  0  0  0  0  0  0  0
   -1.6290    1.6650   -0.2990 C   0  0  0  0  0  0  0  0  0  0  0  0
   -2.8330    1.2620   -0.8470 C   0  0  0  0  0  0  0  0  0  0  0  0
   -3.3130   -0.0110   -0.6020 C   0  0  0  0  0  0  0  0  0  0  0  0
   -2.5900   -0.8820    0.1900 C   0  0  0  0  0  0  0  0  0  0  0  0
    2.8350    1.7010    0.2460 C   0  0  0  0  0  0  0  0  0  0  0  0
    0.7380   -1.2050   -0.9140 N   0  0  0  0  0  0  0  0  0  0  0  0
    0.8150   -2.6500   -1.1440 C   0  0  0  0  0  0  0  0  0  0  0  0
    2.6480   -1.2110    0.2140 O   0  0  0  0  0  0  0  0  0  0  0  0
    1.6860   -0.5880   -0.1810 C   0  0  0  0  0  0  0  0  0  0  0  0
    1.9010    1.8820   -0.9520 C   0  0  0  0  0  0  0  0  0  0  0  0
    1.5500    0.8770    0.1470 C   0  0  0  0  0  0  0  0  0  0  0  0
    0.4050    1.2370    1.0950 C   0  0  0  0  0  0  0  0  0  0  0  0
   -1.3840   -0.4800    0.7390 C   0  0  0  0  0  0  0  0  0  0  0  0
   -0.6790   -1.3290    1.5180 F   0  0  0  0  0  0  0  0  0  0  0  0
   -1.2550    2.6600   -0.4900 H   0  0  0  0  0  0  0  0  0  0  0  0
   -3.3980    1.9420   -1.4660 H   0  0  0  0  0  0  0  0  0  0  0  0
   -4.2530   -0.3240   -1.0310 H   0  0  0  0  0  0  0  0  0  0  0  0
   -2.9660   -1.8760    0.3820 H   0  0  0  0  0  0  0  0  0  0  0  0
    3.7790    1.1840    0.0740 H   0  0  0  0  0  0  0  0  0  0  0  0
    2.8650    2.5000    0.9870 H   0  0  0  0  0  0  0  0  0  0  0  0
    0.0040   -0.6930   -1.2880 H   0  0  0  0  0  0  0  0  0  0  0  0
    1.7440   -2.8850   -1.6630 H   0  0  0  0  0  0  0  0  0  0  0  0
    0.7910   -3.1720   -0.1880 H   0  0  0  0  0  0  0  0  0  0  0  0
   -0.0320   -2.9660   -1.7530 H   0  0  0  0  0  0  0  0  0  0  0  0
    1.3160    2.8010   -0.9990 H   0  0  0  0  0  0  0  0  0  0  0  0
    2.2300    1.4850   -1.9120 H   0  0  0  0  0  0  0  0  0  0  0  0
    0.3870    2.3160    1.2510 H   0  0  0  0  0  0  0  0  0  0  0  0
    0.5530    0.7350    2.0510 H   0  0  0  0  0  0  0  0  0  0  0  0
  7  8  1  0  0  0  0
  7 10  1  0  0  0  0
  9 10  2  0  0  0  0
 10 12  1  0  0  0  0
  3  4  2  0  0  0  0
  2  3  1  0  0  0  0
  4  5  1  0  0  0  0
  1  2  2  0  0  0  0
  5 14  2  0  0  0  0
  1 14  1  0  0  0  0
  1 13  1  0  0  0  0
 14 15  1  0  0  0  0
 12 13  1  0  0  0  0
  6 12  1  0  0  0  0
 11 12  1  0  0  0  0
  6 11  1  0  0  0  0
  2 16  1  0  0  0  0
  3 17  1  0  0  0  0
  4 18  1  0  0  0  0
  5 19  1  0  0  0  0
  6 20  1  0  0  0  0
  6 21  1  0  0  0  0
  7 22  1  0  0  0  0
  8 23  1  0  0  0  0
  8 24  1  0  0  0  0
  8 25  1  0  0  0  0
 11 26  1  0  0  0  0
 11 27  1  0  0  0  0
 13 28  1  0  0  0  0
 13 29  1  0  0  0  0
M  END
> <OPENEYE_ISO_SMILES>
CNC(=O)C1(CC1)Cc2ccccc2F

> <OPENEYE_INCHI>
InChI=1S/C12H14FNO/c1-14-11(15)12(6-7-12)8-9-4-2-3-5-10(9)13/h2-5H,6-8H2,1H3,(H,14,15)

> <OPENEYE_INCHIKEY>
KIJYNTMPXZUXEI-UHFFFAOYSA-N

> <FORMULA>
C12H14FNO

$$$$
