6FZ
  -OEChem-02242320013D

 22 23  0     0  0  0  0  0  0999 V2000
    3.3550    0.7370   -0.1870 C   0  0  0  0  0  0  0  0  0  0  0  0
    2.1450    1.4020   -0.1900 C   0  0  0  0  0  0  0  0  0  0  0  0
    0.9610    0.6980   -0.0410 C   0  0  0  0  0  0  0  0  0  0  0  0
    0.9930   -0.6760    0.1110 C   0  0  0  0  0  0  0  0  0  0  0  0
    2.2080   -1.3410    0.1140 C   0  0  0  0  0  0  0  0  0  0  0  0
   -0.4170   -1.2070    0.2550 C   0  0  0  0  0  0  0  0  0  0  0  0
   -1.2780    0.0230    0.6120 C   0  0  0  0  0  0  0  0  0  0  0  0
   -0.4720    1.1830   -0.0100 C   0  0  0  0  0  0  0  0  0  0  0  0
   -2.9270   -1.0380   -0.6930 O   0  0  0  0  0  0  0  0  0  0  0  0
   -2.6440   -0.0780   -0.0170 C   0  0  0  0  0  0  0  0  0  0  0  0
   -3.5450    0.8980    0.1750 O   0  0  0  0  0  0  0  0  0  0  0  0
    3.3860   -0.6370   -0.0400 C   0  0  0  0  0  0  0  0  0  0  0  0
    4.2750    1.2890   -0.3030 H   0  0  0  0  0  0  0  0  0  0  0  0
    2.1210    2.4750   -0.3100 H   0  0  0  0  0  0  0  0  0  0  0  0
    2.2330   -2.4140    0.2330 H   0  0  0  0  0  0  0  0  0  0  0  0
   -0.7540   -1.6450   -0.6840 H   0  0  0  0  0  0  0  0  0  0  0  0
   -0.4630   -1.9460    1.0560 H   0  0  0  0  0  0  0  0  0  0  0  0
   -1.3550    0.1410    1.6930 H   0  0  0  0  0  0  0  0  0  0  0  0
   -0.5550    2.0760    0.6090 H   0  0  0  0  0  0  0  0  0  0  0  0
   -0.8240    1.3880   -1.0210 H   0  0  0  0  0  0  0  0  0  0  0  0
   -4.4070    0.7890   -0.2480 H   0  0  0  0  0  0  0  0  0  0  0  0
    4.3320   -1.1600   -0.0370 H   0  0  0  0  0  0  0  0  0  0  0  0
  5 12  2  0  0  0  0
  1 12  1  0  0  0  0
  4  5  1  0  0  0  0
  1  2  2  0  0  0  0
  4  6  1  0  0  0  0
  3  4  2  0  0  0  0
  6  7  1  0  0  0  0
  2  3  1  0  0  0  0
  3  8  1  0  0  0  0
  7  8  1  0  0  0  0
  7 10  1  0  0  0  0
  9 10  2  0  0  0  0
 10 11  1  0  0  0  0
  1 13  1  0  0  0  0
  2 14  1  0  0  0  0
  5 15  1  0  0  0  0
  6 16  1  0  0  0  0
  6 17  1  0  0  0  0
  7 18  1  0  0  0  0
  8 19  1  0  0  0  0
  8 20  1  0  0  0  0
 11 21  1  0  0  0  0
 12 22  1  0  0  0  0
M  END
> <OPENEYE_ISO_SMILES>
c1ccc2c(c1)CC(C2)C(=O)O

> <OPENEYE_INCHI>
InChI=1S/C10H10O2/c11-10(12)9-5-7-3-1-2-4-8(7)6-9/h1-4,9H,5-6H2,(H,11,12)

> <OPENEYE_INCHIKEY>
XUDCMQBOWOLYCF-UHFFFAOYSA-N

> <FORMULA>
C10H10O2

$$$$
