UHM
  -OEChem-02242320043D

 30 31  0     0  0  0  0  0  0999 V2000
   -5.2030    0.0870   -1.1040 N   0  0  0  0  0  0  0  0  0  0  0  0
   -3.9870    0.5060    1.0780 C   0  0  0  0  0  0  0  0  0  0  0  0
    1.2960   -0.8890   -0.0060 C   0  0  0  0  0  0  0  0  0  0  0  0
    0.7830   -2.1880   -0.0180 C   0  0  0  0  0  0  0  0  0  0  0  0
    1.6410   -3.2660   -0.0160 C   0  0  0  0  0  0  0  0  0  0  0  0
    3.0120   -3.0680   -0.0010 C   0  0  0  0  0  0  0  0  0  0  0  0
    2.6830   -0.6920    0.0090 C   0  0  0  0  0  0  0  0  0  0  0  0
    5.2720    3.2110    0.0400 N   0  0  0  0  0  0  0  0  0  0  0  0
    4.9870    2.1120    0.0360 C   0  0  0  0  0  0  0  0  0  0  0  0
    4.6170    0.6870    0.0300 C   0  0  0  0  0  0  0  0  0  0  0  0
    3.1930    0.5650    0.0150 O   0  0  0  0  0  0  0  0  0  0  0  0
    3.5330   -1.7890    0.0110 C   0  0  0  0  0  0  0  0  0  0  0  0
    0.3820    0.2690   -0.0150 C   0  0  0  0  0  0  0  0  0  0  0  0
    0.8320    1.3990   -0.0090 O   0  0  0  0  0  0  0  0  0  0  0  0
   -0.9520    0.0760   -0.0290 N   0  0  0  0  0  0  0  0  0  0  0  0
   -1.8590    1.2260   -0.0370 C   0  0  0  0  0  0  0  0  0  0  0  0
   -3.2850    0.7410   -0.0520 C   0  0  0  0  0  0  0  0  0  0  0  0
   -5.5380   -0.0230    0.5550 S   0  0  0  0  0  0  0  0  0  0  0  0
   -3.9770    0.5030   -1.2210 C   0  0  0  0  0  0  0  0  0  0  0  0
   -3.6450    0.6240    2.0960 H   0  0  0  0  0  0  0  0  0  0  0  0
   -0.2850   -2.3480   -0.0290 H   0  0  0  0  0  0  0  0  0  0  0  0
    1.2440   -4.2700   -0.0250 H   0  0  0  0  0  0  0  0  0  0  0  0
    3.6780   -3.9180    0.0020 H   0  0  0  0  0  0  0  0  0  0  0  0
    5.0320    0.2070   -0.8560 H   0  0  0  0  0  0  0  0  0  0  0  0
    5.0140    0.2050    0.9240 H   0  0  0  0  0  0  0  0  0  0  0  0
    4.6020   -1.6420    0.0230 H   0  0  0  0  0  0  0  0  0  0  0  0
   -1.3110   -0.8250   -0.0330 H   0  0  0  0  0  0  0  0  0  0  0  0
   -1.6890    1.8290    0.8550 H   0  0  0  0  0  0  0  0  0  0  0  0
   -1.6710    1.8300   -0.9250 H   0  0  0  0  0  0  0  0  0  0  0  0
   -3.5210    0.6550   -2.1880 H   0  0  0  0  0  0  0  0  0  0  0  0
  5  6  2  0  0  0  0
  4  5  1  0  0  0  0
  6 12  1  0  0  0  0
  3  4  2  0  0  0  0
  7 12  2  0  0  0  0
  3  7  1  0  0  0  0
  3 13  1  0  0  0  0
  7 11  1  0  0  0  0
 13 14  2  0  0  0  0
 13 15  1  0  0  0  0
 15 16  1  0  0  0  0
 10 11  1  0  0  0  0
  1 19  2  0  0  0  0
 17 19  1  0  0  0  0
  9 10  1  0  0  0  0
  8  9  3  0  0  0  0
 16 17  1  0  0  0  0
  1 18  1  0  0  0  0
  2 17  2  0  0  0  0
  2 18  1  0  0  0  0
  2 20  1  0  0  0  0
  4 21  1  0  0  0  0
  5 22  1  0  0  0  0
  6 23  1  0  0  0  0
 10 24  1  0  0  0  0
 10 25  1  0  0  0  0
 12 26  1  0  0  0  0
 15 27  1  0  0  0  0
 16 28  1  0  0  0  0
 16 29  1  0  0  0  0
 19 30  1  0  0  0  0
M  END
> <OPENEYE_ISO_SMILES>
c1ccc(c(c1)C(=O)NCc2cnsc2)OCC#N

> <OPENEYE_INCHI>
InChI=1S/C13H11N3O2S/c14-5-6-18-12-4-2-1-3-11(12)13(17)15-7-10-8-16-19-9-10/h1-4,8-9H,6-7H2,(H,15,17)

> <OPENEYE_INCHIKEY>
PZOXHLAZHKNFDQ-UHFFFAOYSA-N

> <FORMULA>
C13H11N3O2S

$$$$
