QZF
  -OEChem-02242320033D

 42 46  0     1  0  0  0  0  0999 V2000
    3.7460    0.0600   -1.5670 C   0  0  0  0  0  0  0  0  0  0  0  0
    0.3110   -0.0990   -0.0650 N   0  0  1  0  0  0  0  0  0  0  0  0
    2.7430    1.9220   -1.3630 C   0  0  0  0  0  0  0  0  0  0  0  0
    3.5100    1.2500   -2.5160 C   0  0  0  0  0  0  0  0  0  0  0  0
    2.4910    0.5130   -0.8220 C   0  0  0  0  0  0  0  0  0  0  0  0
    1.1800   -0.1440   -1.2720 C   0  0  0  0  0  0  0  0  0  0  0  0
   -1.3470   -3.2510   -0.3460 C   0  0  0  0  0  0  0  0  0  0  0  0
    4.8690    0.1860    1.4930 O   0  0  0  0  0  0  0  0  0  0  0  0
   -3.0200   -1.6800   -0.1370 C   0  0  0  0  0  0  0  0  0  0  0  0
   -2.3370    1.9210    0.2220 C   0  0  0  0  0  0  0  0  0  0  0  0
   -3.2750    2.9230    0.3500 C   0  0  0  0  0  0  0  0  0  0  0  0
   -4.6270    2.6170    0.3540 C   0  0  0  0  0  0  0  0  0  0  0  0
   -5.0500    1.3110    0.2300 C   0  0  0  0  0  0  0  0  0  0  0  0
   -4.1200    0.2860    0.0980 C   0  0  0  0  0  0  0  0  0  0  0  0
   -2.7500    0.5980    0.0950 C   0  0  0  0  0  0  0  0  0  0  0  0
   -2.0380   -0.6800   -0.0580 C   0  0  0  0  0  0  0  0  0  0  0  0
   -0.6900   -1.0510   -0.1380 C   0  0  0  0  0  0  0  0  0  0  0  0
    1.2340   -0.3820    1.0650 C   0  0  0  0  0  0  0  0  0  0  0  0
    2.5370    0.3690    0.7040 C   0  0  1  0  0  0  0  0  0  0  0  0
    3.7400   -0.4370    1.1200 C   0  0  0  0  0  0  0  0  0  0  0  0
    3.6890   -1.6440    1.1170 O   0  0  0  0  0  0  0  0  0  0  0  0
    2.5580    1.6280    1.3130 F   0  0  0  0  0  0  0  0  0  0  0  0
   -4.2530   -1.0850   -0.0420 N   0  0  0  0  0  0  0  0  0  0  0  0
   -2.6260   -2.9450   -0.2800 N   0  0  0  0  0  0  0  0  0  0  0  0
   -0.3940   -2.3410   -0.2760 N   0  0  0  0  0  0  0  0  0  0  0  0
    3.6410   -0.9110   -2.0490 H   0  0  0  0  0  0  0  0  0  0  0  0
    4.6590    0.1450   -0.9780 H   0  0  0  0  0  0  0  0  0  0  0  0
    3.3730    2.5320   -0.7150 H   0  0  0  0  0  0  0  0  0  0  0  0
    1.8380    2.4390   -1.6820 H   0  0  0  0  0  0  0  0  0  0  0  0
    4.4240    1.7740   -2.7960 H   0  0  0  0  0  0  0  0  0  0  0  0
    2.8830    1.0050   -3.3730 H   0  0  0  0  0  0  0  0  0  0  0  0
    1.3550   -1.1760   -1.5760 H   0  0  0  0  0  0  0  0  0  0  0  0
    0.7290    0.4230   -2.0870 H   0  0  0  0  0  0  0  0  0  0  0  0
   -1.0670   -4.2880   -0.4580 H   0  0  0  0  0  0  0  0  0  0  0  0
    5.6150   -0.3730    1.7510 H   0  0  0  0  0  0  0  0  0  0  0  0
   -1.2840    2.1630    0.2190 H   0  0  0  0  0  0  0  0  0  0  0  0
   -2.9560    3.9500    0.4490 H   0  0  0  0  0  0  0  0  0  0  0  0
   -5.3550    3.4080    0.4560 H   0  0  0  0  0  0  0  0  0  0  0  0
   -6.1060    1.0830    0.2340 H   0  0  0  0  0  0  0  0  0  0  0  0
    0.8210    0.0010    1.9980 H   0  0  0  0  0  0  0  0  0  0  0  0
    1.4210   -1.4530    1.1440 H   0  0  0  0  0  0  0  0  0  0  0  0
   -5.1000   -1.5590   -0.0690 H   0  0  0  0  0  0  0  0  0  0  0  0
 19 20  1  0  0  0  0
 20 21  2  0  0  0  0
  8 20  1  0  0  0  0
  5 19  1  0  0  0  0
 18 19  1  0  0  0  0
 19 22  1  0  0  0  0
  2 18  1  0  0  0  0
  2 17  1  0  0  0  0
  2  6  1  0  0  0  0
 17 25  2  0  0  0  0
 16 17  1  0  0  0  0
  9 16  2  0  0  0  0
 15 16  1  0  0  0  0
 10 15  2  0  0  0  0
 14 15  1  0  0  0  0
 13 14  2  0  0  0  0
 14 23  1  0  0  0  0
 12 13  1  0  0  0  0
 11 12  2  0  0  0  0
 10 11  1  0  0  0  0
  9 23  1  0  0  0  0
  9 24  1  0  0  0  0
  7 24  2  0  0  0  0
  7 25  1  0  0  0  0
  5  6  1  0  0  0  0
  1  5  1  0  0  0  0
  3  5  1  0  0  0  0
  3  4  1  0  0  0  0
  1  4  1  0  0  0  0
  1 26  1  0  0  0  0
  1 27  1  0  0  0  0
  3 28  1  0  0  0  0
  3 29  1  0  0  0  0
  4 30  1  0  0  0  0
  4 31  1  0  0  0  0
  6 32  1  0  0  0  0
  6 33  1  0  0  0  0
  7 34  1  0  0  0  0
  8 35  1  0  0  0  0
 10 36  1  0  0  0  0
 11 37  1  0  0  0  0
 12 38  1  0  0  0  0
 13 39  1  0  0  0  0
 18 40  1  0  0  0  0
 18 41  1  0  0  0  0
 23 42  1  0  0  0  0
M  END
> <OPENEYE_ISO_SMILES>
c1ccc2c(c1)c3c([nH]2)ncnc3[N@]4C[C@](C5(C4)CCC5)(C(=O)O)F

> <OPENEYE_INCHI>
InChI=1S/C18H17FN4O2/c19-18(16(24)25)9-23(8-17(18)6-3-7-17)15-13-11-4-1-2-5-12(11)22-14(13)20-10-21-15/h1-2,4-5,10H,3,6-9H2,(H,24,25)(H,20,21,22)/t18-/m1/s1

> <OPENEYE_INCHIKEY>
DRYOZRKBYUHNNN-GOSISDBHSA-N

> <FORMULA>
C18H17FN4O2

$$$$
