W1Y
  -OEChem-02242320043D

 27 28  0     0  0  0  0  0  0999 V2000
    0.1840    1.7330   -0.0450 N   0  0  0  0  0  0  0  0  0  0  0  0
    0.7260   -0.3840    0.3780 C   0  0  0  0  0  0  0  0  0  0  0  0
   -1.6630    0.0530    0.0230 C   0  0  0  0  0  0  0  0  0  0  0  0
   -2.6380    1.0020   -0.2530 C   0  0  0  0  0  0  0  0  0  0  0  0
   -3.9630    0.6220   -0.3440 C   0  0  0  0  0  0  0  0  0  0  0  0
   -4.3180   -0.7020   -0.1600 C   0  0  0  0  0  0  0  0  0  0  0  0
   -2.0220   -1.2760    0.2010 C   0  0  0  0  0  0  0  0  0  0  0  0
    5.2340   -1.0110   -0.4390 C   0  0  0  0  0  0  0  0  0  0  0  0
    3.8650   -0.5190   -0.6430 N   0  0  0  0  0  0  0  0  0  0  0  0
    3.2510   -0.1270    0.6320 C   0  0  0  0  0  0  0  0  0  0  0  0
    1.8500    0.3700    0.3830 C   0  0  0  0  0  0  0  0  0  0  0  0
   -0.3170    0.4350    0.1160 N   0  0  0  0  0  0  0  0  0  0  0  0
    1.4820    1.6930    0.1150 C   0  0  0  0  0  0  0  0  0  0  0  0
   -3.3490   -1.6490    0.1150 C   0  0  0  0  0  0  0  0  0  0  0  0
    0.6730   -1.4480    0.5520 H   0  0  0  0  0  0  0  0  0  0  0  0
   -2.3610    2.0360   -0.3960 H   0  0  0  0  0  0  0  0  0  0  0  0
   -4.7220    1.3600   -0.5580 H   0  0  0  0  0  0  0  0  0  0  0  0
   -5.3550   -0.9960   -0.2320 H   0  0  0  0  0  0  0  0  0  0  0  0
   -1.2660   -2.0170    0.4160 H   0  0  0  0  0  0  0  0  0  0  0  0
    5.8390   -0.2250    0.0140 H   0  0  0  0  0  0  0  0  0  0  0  0
    5.2140   -1.8780    0.2200 H   0  0  0  0  0  0  0  0  0  0  0  0
    5.6660   -1.2940   -1.3990 H   0  0  0  0  0  0  0  0  0  0  0  0
    3.3020   -1.2070   -1.1200 H   0  0  0  0  0  0  0  0  0  0  0  0
    3.2170   -0.9890    1.2990 H   0  0  0  0  0  0  0  0  0  0  0  0
    3.8410    0.6650    1.0920 H   0  0  0  0  0  0  0  0  0  0  0  0
    2.1540    2.5360    0.0510 H   0  0  0  0  0  0  0  0  0  0  0  0
   -3.6300   -2.6820    0.2570 H   0  0  0  0  0  0  0  0  0  0  0  0
  6 14  2  0  0  0  0
  7 14  1  0  0  0  0
  5  6  1  0  0  0  0
  3  7  2  0  0  0  0
  4  5  2  0  0  0  0
  3  4  1  0  0  0  0
  3 12  1  0  0  0  0
  1 12  1  0  0  0  0
  1 13  2  0  0  0  0
  2 12  1  0  0  0  0
 11 13  1  0  0  0  0
  2 11  2  0  0  0  0
 10 11  1  0  0  0  0
  9 10  1  0  0  0  0
  8  9  1  0  0  0  0
  2 15  1  0  0  0  0
  4 16  1  0  0  0  0
  5 17  1  0  0  0  0
  6 18  1  0  0  0  0
  7 19  1  0  0  0  0
  8 20  1  0  0  0  0
  8 21  1  0  0  0  0
  8 22  1  0  0  0  0
  9 23  1  0  0  0  0
 10 24  1  0  0  0  0
 10 25  1  0  0  0  0
 13 26  1  0  0  0  0
 14 27  1  0  0  0  0
M  END
> <OPENEYE_ISO_SMILES>
CNCc1cnn(c1)c2ccccc2

> <OPENEYE_INCHI>
InChI=1S/C11H13N3/c1-12-7-10-8-13-14(9-10)11-5-3-2-4-6-11/h2-6,8-9,12H,7H2,1H3

> <OPENEYE_INCHIKEY>
SZXULAAYIBSASF-UHFFFAOYSA-N

> <FORMULA>
C11H13N3

$$$$
