T7V
  -OEChem-02242320043D

 25 25  0     1  0  0  0  0  0999 V2000
    2.0390    2.0450    0.7750 C   0  0  0  0  0  0  0  0  0  0  0  0
   -1.5410    1.0160   -1.8660 C   0  0  0  0  0  0  0  0  0  0  0  0
   -1.3460    0.8180   -0.3610 C   0  0  2  0  0  0  0  0  0  0  0  0
   -3.2130   -0.5900    0.3230 C   0  0  0  0  0  0  0  0  0  0  0  0
   -3.7830   -1.9240    0.7330 C   0  0  0  0  0  0  0  0  0  0  0  0
    0.1250    0.8560   -0.0360 C   0  0  0  0  0  0  0  0  0  0  0  0
    0.6900    2.0090    0.4760 C   0  0  0  0  0  0  0  0  0  0  0  0
    2.8240    0.9280    0.5620 C   0  0  0  0  0  0  0  0  0  0  0  0
    2.2580   -0.2290    0.0540 C   0  0  0  0  0  0  0  0  0  0  0  0
    0.9070   -0.2650   -0.2400 C   0  0  0  0  0  0  0  0  0  0  0  0
   -1.9010   -0.4780    0.0370 N   0  0  0  0  0  0  0  0  0  0  0  0
   -3.9350    0.3820    0.2510 O   0  0  0  0  0  0  0  0  0  0  0  0
    3.2440   -1.6320   -0.2140 Cl  0  0  0  0  0  0  0  0  0  0  0  0
    2.4810    2.9470    1.1700 H   0  0  0  0  0  0  0  0  0  0  0  0
   -2.6050    0.9880   -2.1010 H   0  0  0  0  0  0  0  0  0  0  0  0
   -1.1290    1.9800   -2.1620 H   0  0  0  0  0  0  0  0  0  0  0  0
   -1.0290    0.2200   -2.4060 H   0  0  0  0  0  0  0  0  0  0  0  0
   -1.8580    1.6140    0.1790 H   0  0  0  0  0  0  0  0  0  0  0  0
   -4.8520   -1.8190    0.9220 H   0  0  0  0  0  0  0  0  0  0  0  0
   -3.6250   -2.6480   -0.0670 H   0  0  0  0  0  0  0  0  0  0  0  0
   -3.2860   -2.2690    1.6390 H   0  0  0  0  0  0  0  0  0  0  0  0
    0.0770    2.8820    0.6430 H   0  0  0  0  0  0  0  0  0  0  0  0
    3.8790    0.9570    0.7910 H   0  0  0  0  0  0  0  0  0  0  0  0
    0.4650   -1.1660   -0.6400 H   0  0  0  0  0  0  0  0  0  0  0  0
   -1.3240   -1.2560    0.0940 H   0  0  0  0  0  0  0  0  0  0  0  0
  2  3  1  0  0  0  0
  4 11  1  0  0  0  0
  4 12  2  0  0  0  0
  4  5  1  0  0  0  0
  3 11  1  0  0  0  0
  3  6  1  0  0  0  0
  6  7  2  0  0  0  0
  1  7  1  0  0  0  0
  1  8  2  0  0  0  0
  8  9  1  0  0  0  0
  9 13  1  0  0  0  0
  9 10  2  0  0  0  0
  6 10  1  0  0  0  0
  1 14  1  0  0  0  0
  2 15  1  0  0  0  0
  2 16  1  0  0  0  0
  2 17  1  0  0  0  0
  3 18  1  0  0  0  0
  5 19  1  0  0  0  0
  5 20  1  0  0  0  0
  5 21  1  0  0  0  0
  7 22  1  0  0  0  0
  8 23  1  0  0  0  0
 10 24  1  0  0  0  0
 11 25  1  0  0  0  0
M  END
> <OPENEYE_ISO_SMILES>
C[C@H](c1cccc(c1)Cl)NC(=O)C

> <OPENEYE_INCHI>
InChI=1S/C10H12ClNO/c1-7(12-8(2)13)9-4-3-5-10(11)6-9/h3-7H,1-2H3,(H,12,13)/t7-/m1/s1

> <OPENEYE_INCHIKEY>
XDFGWKFEFHPPQO-SSDOTTSWSA-N

> <FORMULA>
C10H12ClNO

$$$$
