@<TRIPOS>MOLECULE
/home/pku/3cl/gett_pdb/5SRT/5SRT_mol2/ligand/5SRT_RG5.pdb
 37 41 0 0 0
SMALL
GASTEIGER

@<TRIPOS>ATOM
      1  N1       -47.5490  -29.1080    6.4350 N.ar  201  RG5201     -0.3411
      2  C15      -50.1890  -28.9820    3.4430 C.ar  201  RG5201     -0.0258
      3  C14      -48.8190  -29.0580    3.2560 C.ar  201  RG5201     -0.0494
      4  C13      -47.9790  -29.0960    4.3600 C.ar  201  RG5201      0.0087
      5  C12      -44.1940  -29.2770    5.8210 C.2   201  RG5201      0.1048
      6  C11      -44.2690  -28.8560    1.6670 C.3   201  RG5201      0.0268
      7  C10      -45.5630  -27.6360   -0.0930 C.ar  201  RG5201      0.0439
      8  C9       -44.6370  -28.8190    0.1750 C.3   201  RG5201      0.0883
      9  C8       -46.2390  -30.5400    0.4660 C.3   201  RG5201      0.0605
     10  C7       -46.0160  -30.5240    1.9740 C.3   201  RG5201      0.0250
     11  C6       -45.3450  -29.2390    3.8840 C.3   201  RG5201      0.1882
     12  C5       -46.5190  -29.1830    4.6010 C.ar  201  RG5201      0.0474
     13  C4       -46.4010  -29.1650    5.9990 C.ar  201  RG5201      0.1296
     14  C3       -48.5280  -29.0570    5.6640 C.ar  201  RG5201      0.0510
     15  C2       -49.8900  -28.9950    5.8320 C.ar  201  RG5201     -0.0025
     16  C1       -50.7100  -28.9630    4.7190 C.ar  201  RG5201      0.1254
     17  O1       -45.1580  -30.0460   -0.2580 O.3   201  RG5201     -0.3755
     18  F1       -52.0620  -28.8950    4.8380 F     201  RG5201     -0.2054
     19  N2       -45.4140  -29.2890    2.4380 N.3   201  RG5201     -0.2671
     20  N3       -46.2840  -27.4240   -1.1960 N.ar  201  RG5201     -0.2917
     21  N4       -46.9380  -26.2820   -1.0570 N.ar  201  RG5201     -0.2182
     22  N5       -46.6370  -25.7770    0.1360 N.ar  201  RG5201     -0.2182
     23  N6       -44.1910  -29.2860    4.5020 N.2   201  RG5201     -0.2431
     24  N7       -45.2340  -29.2280    6.6390 N.pl3 201  RG5201     -0.1859
     25  N8       -45.7490  -26.6110    0.7750 N.ar  201  RG5201     -0.2917
     26  H3       -47.6700  -29.0930    7.3150 H     201  RG5201      0.1671
     27  H12      -50.7680  -28.9860    2.7160 H     201  RG5201      0.0646
     28  H11      -48.4720  -29.0990    2.3910 H     201  RG5201      0.0625
     29  H10      -43.3650  -29.3090    6.2450 H     201  RG5201      0.1015
     30  H9       -43.9960  -27.9690    1.9560 H     201  RG5201      0.0450
     31  H8       -43.5390  -29.4790    1.8150 H     201  RG5201      0.0450
     32  H1       -43.8540  -28.6550   -0.3460 H     201  RG5201      0.0590
     33  H7       -46.4030  -31.4600    0.1960 H     201  RG5201      0.0572
     34  H6       -47.0000  -29.9970    0.2530 H     201  RG5201      0.0572
     35  H5       -45.4230  -31.2530    2.2180 H     201  RG5201      0.0450
     36  H4       -46.8670  -30.6570    2.4140 H     201  RG5201      0.0450
     37  H2       -50.2360  -28.9760    6.6880 H     201  RG5201      0.0667
@<TRIPOS>BOND
     1    20    21   ar
     2    20     7   ar
     3    21    22   ar
     4    32     8    1
     5    17     8    1
     6    17     9    1
     7     7     8    1
     8     7    25   ar
     9    22    25   ar
    10     8     6    1
    11    33     9    1
    12    34     9    1
    13     9    10    1
    14     6    31    1
    15     6    30    1
    16     6    19    1
    17    10    35    1
    18    10    36    1
    19    10    19    1
    20    28     3    1
    21    19    11    1
    22    27     2    1
    23     3     2   ar
    24     3     4   ar
    25     2    16   ar
    26    11    23    1
    27    11    12    1
    28     4    12   ar
    29     4    14   ar
    30    23     5    2
    31    12    13   ar
    32    16    18    1
    33    16    15   ar
    34    14    15   ar
    35    14     1   ar
    36     5    29    1
    37     5    24    1
    38    15    37    1
    39    13     1   ar
    40    13    24    1
    41     1    26    1
