@<TRIPOS>MOLECULE
/home/pku/3cl/gett_pdb/5SQY/5SQY_mol2/ligand/5SQY_QWO.pdb
 51 55 0 0 0
SMALL
GASTEIGER

@<TRIPOS>ATOM
      1  C18      -44.2620  -29.6640    7.1900 C.ar  201  QWO201      0.0660
      2  C16      -45.5730  -29.3280    5.0100 C.ar  201  QWO201      0.0528
      3  C15      -46.2530  -29.1420    3.8060 C.ar  201  QWO201      0.0526
      4  C14      -45.5650  -29.2440    2.4390 C.2   201  QWO201      0.2457
      5  C12      -44.2460  -30.8630    1.0320 C.3   201  QWO201      0.0580
      6  C11      -45.1550  -31.8850    0.3260 C.ar  201  QWO201     -0.0199
      7  C10      -46.5420  -32.0780    0.3090 C.ar  201  QWO201     -0.0563
      8  C20      -46.3010  -29.2500    6.1990 C.ar  201  QWO201      0.1000
      9  C02      -43.0660  -32.5790    2.3590 C.2   201  QWO201      0.0926
     10  C03      -42.9520  -31.6050    1.1970 C.3   201  QWO201      0.0343
     11  C04      -42.8950  -32.2650   -0.1630 C.3   201  QWO201     -0.0132
     12  C05      -44.3390  -32.7430   -0.3860 C.ar  201  QWO201     -0.0003
     13  C06      -44.8650  -33.7880   -1.1490 C.ar  201  QWO201      0.1204
     14  C08      -46.2430  -33.9820   -1.1680 C.ar  201  QWO201     -0.0199
     15  C09      -47.0770  -33.1300   -0.4360 C.ar  201  QWO201     -0.0580
     16  C21      -47.6800  -28.9930    6.1900 C.ar  201  QWO201      0.0614
     17  C23      -49.8570  -29.2100    7.5270 C.2   201  QWO201      0.3041
     18  C25      -51.9910  -29.4400    8.8760 C.3   201  QWO201      0.0247
     19  C26      -52.4480  -30.5490    9.8290 C.3   201  QWO201     -0.0328
     20  C27      -52.5270  -30.7600    8.3150 C.3   201  QWO201     -0.0328
     21  C29      -48.3360  -28.8300    4.9770 C.ar  201  QWO201     -0.0376
     22  C30      -47.6260  -28.9070    3.7870 C.ar  201  QWO201     -0.0467
     23  N13      -44.8950  -30.5280    2.2610 N.am  201  QWO201     -0.3038
     24  N19      -45.5680  -29.4410    7.3450 N.ar  201  QWO201     -0.2455
     25  N22      -48.4070  -28.9580    7.4700 N.am  201  QWO201     -0.2675
     26  N24      -50.5420  -29.2210    8.8170 N.am  201  QWO201     -0.2963
     27  O01      -43.3550  -33.7890    2.1560 O.co2 201  QWO201     -0.8473
     28  O07      -44.0020  -34.6340   -1.8600 O.3   201  QWO201     -0.5065
     29  O28      -50.4990  -29.4090    6.5480 O.2   201  QWO201     -0.2525
     30  O31      -45.6260  -28.4220    1.5840 O.2   201  QWO201     -0.2701
     31  O32      -42.8850  -32.1540    3.5350 O.co2 201  QWO201     -0.3086
     32  S17      -43.9640  -29.6400    5.5150 S.2   201  QWO201     -0.0746
     33 H181      -43.5430  -29.8180    7.9990 H     201  QWO201      0.0907
     34 H121      -44.1010  -29.9880    0.4110 H     201  QWO201      0.0555
     35 H101      -47.1920  -31.4160    0.8760 H     201  QWO201      0.0621
     36 H031      -42.1280  -30.9120    1.3270 H     201  QWO201      0.0393
     37 H042      -42.1800  -33.0470   -0.2700 H     201  QWO201      0.0322
     38 H041      -42.6650  -31.5230   -0.8740 H     201  QWO201      0.0322
     39 H081      -46.6690  -34.7930   -1.7540 H     201  QWO201      0.0654
     40 H091      -48.1560  -33.2750   -0.4660 H     201  QWO201      0.0619
     41 H251      -52.6640  -28.5990    8.7720 H     201  QWO201      0.0499
     42 H262      -53.3980  -30.3770   10.3280 H     201  QWO201      0.0284
     43 H261      -51.6530  -31.0950   10.3340 H     201  QWO201      0.0284
     44 H272      -53.5280  -30.7150    7.8860 H     201  QWO201      0.0284
     45 H271      -51.7860  -31.4320    7.8900 H     201  QWO201      0.0284
     46 H291      -49.4000  -28.6430    4.9410 H     201  QWO201      0.0637
     47 H301      -48.1330  -28.7480    2.8380 H     201  QWO201      0.0626
     48 H131      -44.9140  -31.1740    3.0240 H     201  QWO201      0.1496
     49 H221      -47.8970  -28.8290    8.3260 H     201  QWO201      0.1564
     50 H241      -50.0220  -29.0520    9.6580 H     201  QWO201      0.1505
     51 H071      -44.1500  -34.5310   -2.7840 H     201  QWO201      0.2921
@<TRIPOS>UNITY_ATOM_ATTR
27 1
charge -1
@<TRIPOS>BOND
     1    51    28    1
     2    28    13    1
     3    39    14    1
     4    14    13   ar
     5    14    15   ar
     6    13    12   ar
     7    38    11    1
     8    40    15    1
     9    15     7   ar
    10    12    11    1
    11    12     6   ar
    12    37    11    1
    13    11    10    1
    14     7     6   ar
    15     7    35    1
    16     6     5    1
    17    34     5    1
    18     5    10    1
    19     5    23    1
    20    10    36    1
    21    10     9    1
    22    30     4    2
    23    27     9   ar
    24    23     4   am
    25    23    48    1
    26     9    31   ar
    27     4     3    1
    28    47    22    1
    29    22     3   ar
    30    22    21   ar
    31     3     2   ar
    32    46    21    1
    33    21    16   ar
    34     2    32   ar
    35     2     8   ar
    36    32     1   ar
    37    16     8   ar
    38    16    25    1
    39     8    24   ar
    40    29    17    2
    41     1    24   ar
    42     1    33    1
    43    25    17   am
    44    25    49    1
    45    17    26   am
    46    44    20    1
    47    45    20    1
    48    20    18    1
    49    20    19    1
    50    41    18    1
    51    26    18    1
    52    26    50    1
    53    18    19    1
    54    19    42    1
    55    19    43    1
