VZY
  -OEChem-02242320043D

 25 25  0     0  0  0  0  0  0999 V2000
   -1.1500    1.3060   -0.0040 C   0  0  0  0  0  0  0  0  0  0  0  0
   -1.1070   -0.0890   -0.0020 C   0  0  0  0  0  0  0  0  0  0  0  0
   -2.2970   -0.8180   -0.0020 C   0  0  0  0  0  0  0  0  0  0  0  0
    0.1940   -0.7920   -0.0000 C   0  0  0  0  0  0  0  0  0  0  0  0
    2.6310   -0.7810    0.0010 C   0  0  0  0  0  0  0  0  0  0  0  0
    5.0260   -0.1810    0.0020 O   0  0  0  0  0  0  0  0  0  0  0  0
    3.7480    0.2310    0.0010 C   0  0  0  0  0  0  0  0  0  0  0  0
    3.4940    1.4120   -0.0010 O   0  0  0  0  0  0  0  0  0  0  0  0
    1.3420   -0.0850   -0.0010 N   0  0  0  0  0  0  0  0  0  0  0  0
    0.2290   -2.0070    0.0010 O   0  0  0  0  0  0  0  0  0  0  0  0
   -2.3670    1.9550    0.0000 C   0  0  0  0  0  0  0  0  0  0  0  0
   -3.5430    1.2260    0.0060 C   0  0  0  0  0  0  0  0  0  0  0  0
   -3.5070   -0.1570   -0.0040 C   0  0  0  0  0  0  0  0  0  0  0  0
   -4.7930   -0.9420    0.0020 C   0  0  0  0  0  0  0  0  0  0  0  0
   -0.2320    1.8750   -0.0040 H   0  0  0  0  0  0  0  0  0  0  0  0
   -2.2700   -1.8980   -0.0010 H   0  0  0  0  0  0  0  0  0  0  0  0
    2.7070   -1.4070   -0.8880 H   0  0  0  0  0  0  0  0  0  0  0  0
    2.7060   -1.4050    0.8920 H   0  0  0  0  0  0  0  0  0  0  0  0
    5.7080    0.5050    0.0010 H   0  0  0  0  0  0  0  0  0  0  0  0
    1.3140    0.8850   -0.0020 H   0  0  0  0  0  0  0  0  0  0  0  0
   -2.4020    3.0340    0.0080 H   0  0  0  0  0  0  0  0  0  0  0  0
   -4.4940    1.7400    0.0090 H   0  0  0  0  0  0  0  0  0  0  0  0
   -5.1130   -1.1250   -1.0240 H   0  0  0  0  0  0  0  0  0  0  0  0
   -4.6350   -1.8950    0.5080 H   0  0  0  0  0  0  0  0  0  0  0  0
   -5.5630   -0.3760    0.5260 H   0  0  0  0  0  0  0  0  0  0  0  0
 11 12  2  0  0  0  0
  1 11  1  0  0  0  0
 12 13  1  0  0  0  0
  1  2  2  0  0  0  0
 13 14  1  0  0  0  0
  3 13  2  0  0  0  0
  2  3  1  0  0  0  0
  2  4  1  0  0  0  0
  4 10  2  0  0  0  0
  4  9  1  0  0  0  0
  5  9  1  0  0  0  0
  5  7  1  0  0  0  0
  7  8  2  0  0  0  0
  6  7  1  0  0  0  0
  1 15  1  0  0  0  0
  3 16  1  0  0  0  0
  5 17  1  0  0  0  0
  5 18  1  0  0  0  0
  6 19  1  0  0  0  0
  9 20  1  0  0  0  0
 11 21  1  0  0  0  0
 12 22  1  0  0  0  0
 14 23  1  0  0  0  0
 14 24  1  0  0  0  0
 14 25  1  0  0  0  0
M  END
> <OPENEYE_ISO_SMILES>
Cc1cccc(c1)C(=O)NCC(=O)O

> <OPENEYE_INCHI>
InChI=1S/C10H11NO3/c1-7-3-2-4-8(5-7)10(14)11-6-9(12)13/h2-5H,6H2,1H3,(H,11,14)(H,12,13)

> <OPENEYE_INCHIKEY>
YKAKNMHEIJUKEX-UHFFFAOYSA-N

> <FORMULA>
C10H11NO3

$$$$
