@<TRIPOS>MOLECULE
/home/pku/3cl/gett_pdb/7S6X/7S6X_mol2/ligand/7S6X_I70.pdb
 39 41 0 0 0
SMALL
GASTEIGER

@<TRIPOS>ATOM
      1  C1       -13.8060  -10.1080  -16.5850 C.2   401  I70401      0.2929
      2  C11       -9.6490  -17.3120  -18.2860 C.3   401  I70401      0.1727
      3  C12       -9.7610  -16.1260  -17.3880 C.2   401  I70401      0.2459
      4  C13       -8.0800  -14.9230  -18.8190 C.3   401  I70401      0.0939
      5  C14       -9.2080  -13.8300  -16.9620 C.3   401  I70401      0.1535
      6  C15      -10.5770  -13.2950  -17.2610 C.2   401  I70401      0.2595
      7  C16       -7.4160  -13.5580  -18.6250 C.3   401  I70401      0.0220
      8  C17      -12.6680  -12.3780  -16.4240 C.3   401  I70401      0.1352
      9  C18       -6.6980  -13.3200  -17.2860 C.3   401  I70401      0.0037
     10  C19      -13.6550  -13.1460  -15.5260 C.3   401  I70401      0.0340
     11  C20      -13.7910  -14.6090  -15.9670 C.3   401  I70401      0.0818
     12  C21      -14.5240  -14.7620  -17.2990 C.3   401  I70401      0.0326
     13  C22      -15.3530  -16.0370  -17.1450 C.3   401  I70401      0.1156
     14  C23       -6.3390  -14.5960  -16.5140 C.3   401  I70401      0.0001
     15  C24      -14.6020  -15.4710  -15.0310 C.2   401  I70401      0.2410
     16  C25       -5.5530  -12.3090  -17.4550 C.3   401  I70401      0.0001
     17  C26      -11.3460  -16.3540  -19.8320 C.3   401  I70401      0.0022
     18  C27       -6.1780  -21.4970  -15.7810 C.3   401  I70401      0.0218
     19  C28       -5.1270  -19.3980  -16.6680 C.3   401  I70401      0.0218
     20  C29       -5.9260  -21.1780  -18.2240 C.3   401  I70401      0.0218
     21  C30      -10.9280  -17.6210  -19.0800 C.3   401  I70401      0.0270
     22  C31      -12.0770  -18.1010  -18.2000 C.3   401  I70401      0.0022
     23  C32      -10.6400  -18.7050  -20.1120 C.3   401  I70401      0.0022
     24  C34       -8.1450  -12.8600  -17.4870 C.3   401  I70401      0.0289
     25  C7        -6.1940  -20.4670  -16.9060 C.3   401  I70401      0.0804
     26  C8       -12.5900  -10.8780  -16.1330 C.3   401  I70401      0.2503
     27  C9        -7.9740  -18.9320  -17.7460 C.2   401  I70401      0.3395
     28  N10       -9.1860  -18.4320  -17.5010 N.am  401  I70401     -0.1796
     29  N13       -9.0500  -15.0540  -17.7290 N.am  401  I70401     -0.2716
     30  N16      -11.3210  -12.9030  -16.2310 N.am  401  I70401     -0.2027
     31  N2       -13.6740   -9.1920  -17.6650 N.am  401  I70401     -0.0855
     32  N23      -15.4430  -16.2480  -15.7090 N.am  401  I70401     -0.2054
     33  N8        -7.5270  -19.8610  -16.8930 N.am  401  I70401     -0.1906
     34  O26      -14.4730  -15.4590  -13.8200 O.2   401  I70401     -0.2734
     35  O29       -7.3310  -18.5390  -18.7210 O.2   401  I70401     -0.2492
     36  O33      -10.4460  -16.1730  -16.3820 O.2   401  I70401     -0.2730
     37  O38      -10.9710  -13.2530  -18.4160 O.2   401  I70401     -0.2716
     38  O5       -14.8680  -10.2790  -16.0110 O.2   401  I70401     -0.2688
     39  O9       -11.4390  -10.3270  -16.7890 O.3   401  I70401     -0.2113
@<TRIPOS>BOND
     1    23    21    1
     2    17    21    1
     3    21     2    1
     4    21    22    1
     5     4     7    1
     6     4    29    1
     7    35    27    2
     8     7    24    1
     9     7     9    1
    10    37     6    2
    11     2    28    1
    12     2     3    1
    13    20    25    1
    14    27    28   am
    15    27    33   am
    16    29     3   am
    17    29     5    1
    18    31     1   am
    19    24     9    1
    20    24     5    1
    21    16     9    1
    22     3    36    2
    23    12    13    1
    24    12    11    1
    25     9    14    1
    26     6     5    1
    27     6    30   am
    28    13    32    1
    29    25    33    1
    30    25    19    1
    31    25    18    1
    32    39    26    1
    33     1    26    1
    34     1    38    2
    35     8    30    1
    36     8    26    1
    37     8    10    1
    38    11    10    1
    39    11    15    1
    40    32    15   am
    41    15    34    2
