T7S
  -OEChem-02242320043D

 39 40  0     0  0  0  0  0  0999 V2000
   -2.3500   -0.4550   -0.2000 N   0  0  0  0  0  0  0  0  0  0  0  0
    0.1160   -0.3650   -0.3770 C   0  0  0  0  0  0  0  0  0  0  0  0
    0.6490    0.7200    0.5610 C   0  0  0  0  0  0  0  0  0  0  0  0
    1.9220    1.3270   -0.0380 C   0  0  0  0  0  0  0  0  0  0  0  0
   -1.1560   -0.9400    0.1930 C   0  0  0  0  0  0  0  0  0  0  0  0
   -3.5990   -1.0820    0.2540 C   0  0  0  0  0  0  0  0  0  0  0  0
   -4.6840    1.1400   -0.1000 C   0  0  0  0  0  0  0  0  0  0  0  0
    2.8770    0.2440   -0.3130 N   0  0  0  0  0  0  0  0  0  0  0  0
    4.5350    1.4110    1.1040 C   0  0  0  0  0  0  0  0  0  0  0  0
    4.9380   -0.5580   -0.1330 O   0  0  0  0  0  0  0  0  0  0  0  0
    4.1320    0.2950    0.1750 C   0  0  0  0  0  0  0  0  0  0  0  0
   -3.3290    1.7680   -0.4320 C   0  0  0  0  0  0  0  0  0  0  0  0
   -2.4280    0.7150   -1.0850 C   0  0  0  0  0  0  0  0  0  0  0  0
    2.4370   -0.8940   -1.1310 C   0  0  0  0  0  0  0  0  0  0  0  0
    1.1590   -1.4760   -0.5200 C   0  0  0  0  0  0  0  0  0  0  0  0
   -4.4860   -0.0090    0.8920 C   0  0  0  0  0  0  0  0  0  0  0  0
   -1.1040   -1.8400    1.0040 O   0  0  0  0  0  0  0  0  0  0  0  0
   -0.0890    0.0690   -1.3550 H   0  0  0  0  0  0  0  0  0  0  0  0
   -0.1030    1.5000    0.6810 H   0  0  0  0  0  0  0  0  0  0  0  0
    0.8770    0.2820    1.5330 H   0  0  0  0  0  0  0  0  0  0  0  0
    1.6790    1.8440   -0.9650 H   0  0  0  0  0  0  0  0  0  0  0  0
    2.3610    2.0290    0.6710 H   0  0  0  0  0  0  0  0  0  0  0  0
   -4.1160   -1.5250   -0.5980 H   0  0  0  0  0  0  0  0  0  0  0  0
   -3.3730   -1.8560    0.9870 H   0  0  0  0  0  0  0  0  0  0  0  0
   -5.3350    1.8940    0.3430 H   0  0  0  0  0  0  0  0  0  0  0  0
   -5.1400    0.7570   -1.0130 H   0  0  0  0  0  0  0  0  0  0  0  0
    3.7160    2.1260    1.1890 H   0  0  0  0  0  0  0  0  0  0  0  0
    4.7630    1.0010    2.0880 H   0  0  0  0  0  0  0  0  0  0  0  0
    5.4160    1.9140    0.7070 H   0  0  0  0  0  0  0  0  0  0  0  0
   -3.4730    2.6020   -1.1200 H   0  0  0  0  0  0  0  0  0  0  0  0
   -2.8610    2.1300    0.4840 H   0  0  0  0  0  0  0  0  0  0  0  0
   -1.4310    1.1290   -1.2330 H   0  0  0  0  0  0  0  0  0  0  0  0
   -2.8500    0.4190   -2.0460 H   0  0  0  0  0  0  0  0  0  0  0  0
    2.2360   -0.5580   -2.1480 H   0  0  0  0  0  0  0  0  0  0  0  0
    3.2170   -1.6560   -1.1460 H   0  0  0  0  0  0  0  0  0  0  0  0
    1.3820   -1.8940    0.4620 H   0  0  0  0  0  0  0  0  0  0  0  0
    0.7690   -2.2600   -1.1690 H   0  0  0  0  0  0  0  0  0  0  0  0
   -5.4540   -0.4410    1.1460 H   0  0  0  0  0  0  0  0  0  0  0  0
   -4.0070    0.3690    1.7960 H   0  0  0  0  0  0  0  0  0  0  0  0
  9 11  1  0  0  0  0
 10 11  2  0  0  0  0
  8 11  1  0  0  0  0
  8 14  1  0  0  0  0
 14 15  1  0  0  0  0
  2 15  1  0  0  0  0
  2  3  1  0  0  0  0
  3  4  1  0  0  0  0
  4  8  1  0  0  0  0
  2  5  1  0  0  0  0
  5 17  2  0  0  0  0
  1  5  1  0  0  0  0
  1  6  1  0  0  0  0
  6 16  1  0  0  0  0
  7 16  1  0  0  0  0
  7 12  1  0  0  0  0
 12 13  1  0  0  0  0
  1 13  1  0  0  0  0
  2 18  1  0  0  0  0
  3 19  1  0  0  0  0
  3 20  1  0  0  0  0
  4 21  1  0  0  0  0
  4 22  1  0  0  0  0
  6 23  1  0  0  0  0
  6 24  1  0  0  0  0
  7 25  1  0  0  0  0
  7 26  1  0  0  0  0
  9 27  1  0  0  0  0
  9 28  1  0  0  0  0
  9 29  1  0  0  0  0
 12 30  1  0  0  0  0
 12 31  1  0  0  0  0
 13 32  1  0  0  0  0
 13 33  1  0  0  0  0
 14 34  1  0  0  0  0
 14 35  1  0  0  0  0
 15 36  1  0  0  0  0
 15 37  1  0  0  0  0
 16 38  1  0  0  0  0
 16 39  1  0  0  0  0
M  END
> <OPENEYE_ISO_SMILES>
CC(=O)N1CCC(CC1)C(=O)N2CCCCC2

> <OPENEYE_INCHI>
InChI=1S/C13H22N2O2/c1-11(16)14-9-5-12(6-10-14)13(17)15-7-3-2-4-8-15/h12H,2-10H2,1H3

> <OPENEYE_INCHIKEY>
VFXWKIZCOQQJGS-UHFFFAOYSA-N

> <FORMULA>
C13H22N2O2

$$$$
