IRZ
  -OEChem-02242320023D

 65 67  0     1  0  0  0  0  0999 V2000
    2.7790    0.6130    0.9510 C   0  0  0  0  0  0  0  0  0  0  0  0
    3.1380    4.6330   -0.5410 C   0  0  0  0  0  0  0  0  0  0  0  0
    3.0690    3.1080   -0.6500 C   0  0  0  0  0  0  0  0  0  0  0  0
    1.7390    2.6150   -0.0770 C   0  0  0  0  0  0  0  0  0  0  0  0
    1.7380    1.0860   -0.0310 C   0  0  2  0  0  0  0  0  0  0  0  0
    5.4610    1.0760    2.5300 C   0  0  0  0  0  0  0  0  0  0  0  0
    5.0770    0.0310    1.5130 C   0  0  2  0  0  0  0  0  0  0  0  0
    6.3170   -0.3910    0.7220 C   0  0  0  0  0  0  0  0  0  0  0  0
    5.9460   -1.5150   -0.2460 C   0  0  1  0  0  0  0  0  0  0  0  0
    7.1570   -1.9490   -1.0420 C   0  0  0  0  0  0  0  0  0  0  0  0
    6.1070   -3.9050   -0.3600 C   0  0  0  0  0  0  0  0  0  0  0  0
    5.5290   -2.7840    0.5330 C   0  0  0  0  0  0  0  0  0  0  0  0
    3.1760    2.6960   -2.1190 C   0  0  0  0  0  0  0  0  0  0  0  0
   -0.5410    0.3850   -0.5310 C   0  0  0  0  0  0  0  0  0  0  0  0
   -2.7660   -0.1820   -1.1840 C   0  0  0  0  0  0  0  0  0  0  0  0
   -4.1070   -0.5550   -0.5510 C   0  0  1  0  0  0  0  0  0  0  0  0
   -5.3080   -0.7200   -1.4850 C   0  0  1  0  0  0  0  0  0  0  0  0
   -4.6630   -1.9500   -0.8430 C   0  0  0  0  0  0  0  0  0  0  0  0
   -6.6570   -0.2920   -0.9670 C   0  0  0  0  0  0  0  0  0  0  0  0
   -7.1810   -0.8830    0.1660 C   0  0  0  0  0  0  0  0  0  0  0  0
   -8.4200   -0.4890    0.6410 C   0  0  0  0  0  0  0  0  0  0  0  0
   -9.1320    0.4960   -0.0180 C   0  0  0  0  0  0  0  0  0  0  0  0
   -8.6060    1.0870   -1.1520 C   0  0  0  0  0  0  0  0  0  0  0  0
   -7.3660    0.6970   -1.6230 C   0  0  0  0  0  0  0  0  0  0  0  0
    7.2250   -3.2910   -1.0850 N   0  0  0  0  0  0  0  0  0  0  0  0
    4.0780    0.5860    0.5960 N   0  0  0  0  0  0  0  0  0  0  0  0
    0.4180    0.6100    0.3890 N   0  0  0  0  0  0  0  0  0  0  0  0
    4.9520    2.1710    2.4920 O   0  0  0  0  0  0  0  0  0  0  0  0
    7.9500   -1.1960   -1.5660 O   0  0  0  0  0  0  0  0  0  0  0  0
   -1.7830    0.0460   -0.1390 O   0  0  0  0  0  0  0  0  0  0  0  0
   -0.2840    0.4890   -1.7140 O   0  0  0  0  0  0  0  0  0  0  0  0
    2.4470    0.2610    2.0630 O   0  0  0  0  0  0  0  0  0  0  0  0
   -9.0800   -1.2320    2.0650 Cl  0  0  0  0  0  0  0  0  0  0  0  0
    3.0620    4.9260    0.5060 H   0  0  0  0  0  0  0  0  0  0  0  0
    4.0860    4.9840   -0.9480 H   0  0  0  0  0  0  0  0  0  0  0  0
    2.3150    5.0740   -1.1030 H   0  0  0  0  0  0  0  0  0  0  0  0
    3.8920    2.6660   -0.0880 H   0  0  0  0  0  0  0  0  0  0  0  0
    1.6080    3.0090    0.9300 H   0  0  0  0  0  0  0  0  0  0  0  0
    0.9210    2.9600   -0.7110 H   0  0  0  0  0  0  0  0  0  0  0  0
    1.9690    0.6920   -1.0210 H   0  0  0  0  0  0  0  0  0  0  0  0
    6.1900    0.8450    3.2920 H   0  0  0  0  0  0  0  0  0  0  0  0
    4.6590   -0.8360    2.0240 H   0  0  0  0  0  0  0  0  0  0  0  0
    6.6970    0.4630    0.1600 H   0  0  0  0  0  0  0  0  0  0  0  0
    7.0850   -0.7430    1.4110 H   0  0  0  0  0  0  0  0  0  0  0  0
    5.1440   -1.1960   -0.9120 H   0  0  0  0  0  0  0  0  0  0  0  0
    6.4650   -4.7310    0.2560 H   0  0  0  0  0  0  0  0  0  0  0  0
    5.3500   -4.2580   -1.0600 H   0  0  0  0  0  0  0  0  0  0  0  0
    5.9840   -2.8010    1.5230 H   0  0  0  0  0  0  0  0  0  0  0  0
    4.4440   -2.8610    0.6010 H   0  0  0  0  0  0  0  0  0  0  0  0
    4.0770    3.1290   -2.5530 H   0  0  0  0  0  0  0  0  0  0  0  0
    3.2250    1.6100   -2.1900 H   0  0  0  0  0  0  0  0  0  0  0  0
    2.3020    3.0560   -2.6620 H   0  0  0  0  0  0  0  0  0  0  0  0
   -2.4290   -0.9940   -1.8280 H   0  0  0  0  0  0  0  0  0  0  0  0
   -2.8830    0.7260   -1.7760 H   0  0  0  0  0  0  0  0  0  0  0  0
   -4.2930   -0.1350    0.4380 H   0  0  0  0  0  0  0  0  0  0  0  0
   -5.1420   -0.5630   -2.5510 H   0  0  0  0  0  0  0  0  0  0  0  0
   -4.0720   -2.6020   -1.4860 H   0  0  0  0  0  0  0  0  0  0  0  0
   -5.2140   -2.4490   -0.0460 H   0  0  0  0  0  0  0  0  0  0  0  0
   -6.6250   -1.6530    0.6800 H   0  0  0  0  0  0  0  0  0  0  0  0
  -10.0990    0.8040    0.3520 H   0  0  0  0  0  0  0  0  0  0  0  0
   -9.1620    1.8560   -1.6670 H   0  0  0  0  0  0  0  0  0  0  0  0
   -6.9540    1.1620   -2.5070 H   0  0  0  0  0  0  0  0  0  0  0  0
    7.9240   -3.7890   -1.5370 H   0  0  0  0  0  0  0  0  0  0  0  0
    4.3520    0.9340   -0.2670 H   0  0  0  0  0  0  0  0  0  0  0  0
    0.2340    0.4570    1.3290 H   0  0  0  0  0  0  0  0  0  0  0  0
 10 29  2  0  0  0  0
 10 25  1  0  0  0  0
  9 10  1  0  0  0  0
 11 25  1  0  0  0  0
  8  9  1  0  0  0  0
  7  8  1  0  0  0  0
  9 12  1  0  0  0  0
  6 28  2  0  0  0  0
  6  7  1  0  0  0  0
  7 26  1  0  0  0  0
 11 12  1  0  0  0  0
  1 26  1  0  0  0  0
 14 31  2  0  0  0  0
  1  5  1  0  0  0  0
  1 32  2  0  0  0  0
  5 27  1  0  0  0  0
  4  5  1  0  0  0  0
 14 27  1  0  0  0  0
 14 30  1  0  0  0  0
  3 13  1  0  0  0  0
 16 18  1  0  0  0  0
 17 18  1  0  0  0  0
 15 30  1  0  0  0  0
 15 16  1  0  0  0  0
  3  4  1  0  0  0  0
 16 17  1  0  0  0  0
 17 19  1  0  0  0  0
  2  3  1  0  0  0  0
 19 20  2  0  0  0  0
 20 21  1  0  0  0  0
 19 24  1  0  0  0  0
 21 33  1  0  0  0  0
 21 22  2  0  0  0  0
 23 24  2  0  0  0  0
 22 23  1  0  0  0  0
  2 34  1  0  0  0  0
  2 35  1  0  0  0  0
  2 36  1  0  0  0  0
  3 37  1  0  0  0  0
  4 38  1  0  0  0  0
  4 39  1  0  0  0  0
  5 40  1  0  0  0  0
  6 41  1  0  0  0  0
  7 42  1  0  0  0  0
  8 43  1  0  0  0  0
  8 44  1  0  0  0  0
  9 45  1  0  0  0  0
 11 46  1  0  0  0  0
 11 47  1  0  0  0  0
 12 48  1  0  0  0  0
 12 49  1  0  0  0  0
 13 50  1  0  0  0  0
 13 51  1  0  0  0  0
 13 52  1  0  0  0  0
 15 53  1  0  0  0  0
 15 54  1  0  0  0  0
 16 55  1  0  0  0  0
 17 56  1  0  0  0  0
 18 57  1  0  0  0  0
 18 58  1  0  0  0  0
 20 59  1  0  0  0  0
 22 60  1  0  0  0  0
 23 61  1  0  0  0  0
 24 62  1  0  0  0  0
 25 63  1  0  0  0  0
 26 64  1  0  0  0  0
 27 65  1  0  0  0  0
M  END
> <OPENEYE_ISO_SMILES>
CC(C)C[C@@H](C(=O)N[C@@H](C[C@@H]1CCNC1=O)C=O)NC(=O)OC[C@@H]2C[C@H]2c3cccc(c3)Cl

> <OPENEYE_INCHI>
InChI=1S/C24H32ClN3O5/c1-14(2)8-21(23(31)27-19(12-29)10-16-6-7-26-22(16)30)28-24(32)33-13-17-11-20(17)15-4-3-5-18(25)9-15/h3-5,9,12,14,16-17,19-21H,6-8,10-11,13H2,1-2H3,(H,26,30)(H,27,31)(H,28,32)/t16-,17-,19-,20-,21-/m0/s1

> <OPENEYE_INCHIKEY>
MMZNSFGNZLNDCE-XYYCENQHSA-N

> <FORMULA>
C24H32ClN3O5

$$$$
