S5F
  -OEChem-02242320043D

 39 42  0     1  0  0  0  0  0999 V2000
   -1.6140   -2.6380   -0.6680 C   0  0  0  0  0  0  0  0  0  0  0  0
    3.4050    1.4080   -0.8260 C   0  0  0  0  0  0  0  0  0  0  0  0
   -2.6460    2.7780    1.4750 C   0  0  0  0  0  0  0  0  0  0  0  0
   -3.1750    3.7590    0.4120 C   0  0  0  0  0  0  0  0  0  0  0  0
   -3.7400   -2.4760   -0.2930 C   0  0  0  0  0  0  0  0  0  0  0  0
   -2.5660   -0.3050   -0.8210 C   0  0  0  0  0  0  0  0  0  0  0  0
   -3.2310    2.5640   -0.5580 C   0  0  0  0  0  0  0  0  0  0  0  0
    3.3190   -0.6560    0.2960 C   0  0  0  0  0  0  0  0  0  0  0  0
    1.9990   -0.4580    0.5390 C   0  0  0  0  0  0  0  0  0  0  0  0
    1.3880    0.7210    0.0720 C   0  0  0  0  0  0  0  0  0  0  0  0
   -0.8610    0.0420    1.0290 C   0  0  0  0  0  0  0  0  0  0  0  0
   -2.2780    0.3980    0.5070 C   0  0  1  0  0  0  0  0  0  0  0  0
   -2.1580    1.9200    0.3130 C   0  0  0  0  0  0  0  0  0  0  0  0
   -0.7070    2.1350   -0.1280 C   0  0  0  0  0  0  0  0  0  0  0  0
    0.0510    0.9480    0.3050 N   0  0  3  0  0  0  0  0  0  0  0  0
   -2.6380   -1.7520   -0.6020 N   0  0  0  0  0  0  0  0  0  0  0  0
   -3.3670   -3.7220   -0.1800 N   0  0  0  0  0  0  0  0  0  0  0  0
   -2.1060   -3.8180   -0.4080 N   0  0  0  0  0  0  0  0  0  0  0  0
    2.1100    1.6150   -0.5950 N   0  0  0  0  0  0  0  0  0  0  0  0
    4.0180    0.2910   -0.3930 N   0  0  0  0  0  0  0  0  0  0  0  0
    4.0440    2.2420   -1.4450 O   0  0  0  0  0  0  0  0  0  0  0  0
    4.1090   -2.0960    0.8560 Cl  0  0  0  0  0  0  0  0  0  0  0  0
   -0.5840   -2.4090   -0.8980 H   0  0  0  0  0  0  0  0  0  0  0  0
   -1.8400    3.1870    2.0860 H   0  0  0  0  0  0  0  0  0  0  0  0
   -3.4310    2.3090    2.0680 H   0  0  0  0  0  0  0  0  0  0  0  0
   -4.1540    4.1740    0.6510 H   0  0  0  0  0  0  0  0  0  0  0  0
   -2.4510    4.5220    0.1250 H   0  0  0  0  0  0  0  0  0  0  0  0
   -4.7410   -2.0930   -0.1600 H   0  0  0  0  0  0  0  0  0  0  0  0
   -3.5160    0.0500   -1.2200 H   0  0  0  0  0  0  0  0  0  0  0  0
   -1.7680   -0.0830   -1.5300 H   0  0  0  0  0  0  0  0  0  0  0  0
   -4.1830    2.0340   -0.5440 H   0  0  0  0  0  0  0  0  0  0  0  0
   -2.8940    2.8030   -1.5670 H   0  0  0  0  0  0  0  0  0  0  0  0
    1.4250   -1.1940    1.0820 H   0  0  0  0  0  0  0  0  0  0  0  0
   -0.7970    0.2200    2.1030 H   0  0  0  0  0  0  0  0  0  0  0  0
   -0.6230   -0.9970    0.8030 H   0  0  0  0  0  0  0  0  0  0  0  0
   -3.0400    0.1560    1.2490 H   0  0  0  0  0  0  0  0  0  0  0  0
   -0.6580    2.2340   -1.2120 H   0  0  0  0  0  0  0  0  0  0  0  0
   -0.3030    3.0290    0.3470 H   0  0  0  0  0  0  0  0  0  0  0  0
    4.9630    0.1590   -0.5720 H   0  0  0  0  0  0  0  0  0  0  0  0
  8 22  1  0  0  0  0
  8 20  1  0  0  0  0
  2 20  1  0  0  0  0
  8  9  2  0  0  0  0
  2 21  2  0  0  0  0
  2 19  1  0  0  0  0
  9 10  1  0  0  0  0
 10 19  2  0  0  0  0
 10 15  1  0  0  0  0
 14 15  1  0  0  0  0
 11 15  1  0  0  0  0
 13 14  1  0  0  0  0
 11 12  1  0  0  0  0
  7 13  1  0  0  0  0
  3 13  1  0  0  0  0
 12 13  1  0  0  0  0
  4  7  1  0  0  0  0
  3  4  1  0  0  0  0
  6 12  1  0  0  0  0
  6 16  1  0  0  0  0
  5 16  1  0  0  0  0
  5 17  2  0  0  0  0
  1 16  1  0  0  0  0
 17 18  1  0  0  0  0
  1 18  2  0  0  0  0
  1 23  1  0  0  0  0
  3 24  1  0  0  0  0
  3 25  1  0  0  0  0
  4 26  1  0  0  0  0
  4 27  1  0  0  0  0
  5 28  1  0  0  0  0
  6 29  1  0  0  0  0
  6 30  1  0  0  0  0
  7 31  1  0  0  0  0
  7 32  1  0  0  0  0
  9 33  1  0  0  0  0
 11 34  1  0  0  0  0
 11 35  1  0  0  0  0
 12 36  1  0  0  0  0
 14 37  1  0  0  0  0
 14 38  1  0  0  0  0
 20 39  1  0  0  0  0
M  END
> <OPENEYE_ISO_SMILES>
c1c([nH]c(=O)nc1N2C[C@@H](C3(C2)CCC3)Cn4cnnc4)Cl

> <OPENEYE_INCHI>
InChI=1S/C14H17ClN6O/c15-11-4-12(19-13(22)18-11)21-6-10(5-20-8-16-17-9-20)14(7-21)2-1-3-14/h4,8-10H,1-3,5-7H2,(H,18,19,22)/t10-/m0/s1

> <OPENEYE_INCHIKEY>
OWOXMTWYTINFNT-JTQLQIEISA-N

> <FORMULA>
C14H17ClN6O

$$$$
