FMT
  -OEChem-02242320023D

  5  4  0     0  0  0  0  0  0999 V2000
   -0.0950   -0.4200   -0.0010 C   0  0  0  0  0  0  0  0  0  0  0  0
   -1.1240    0.2130    0.0000 O   0  0  0  0  0  0  0  0  0  0  0  0
    1.0850    0.2180    0.0000 O   0  0  0  0  0  0  0  0  0  0  0  0
   -0.1260   -1.5000    0.0030 H   0  0  0  0  0  0  0  0  0  0  0  0
    1.8810   -0.3310   -0.0000 H   0  0  0  0  0  0  0  0  0  0  0  0
  1  2  2  0  0  0  0
  1  3  1  0  0  0  0
  1  4  1  0  0  0  0
  3  5  1  0  0  0  0
M  END
> <OPENEYE_ISO_SMILES>
C(=O)O

> <OPENEYE_INCHI>
InChI=1S/CH2O2/c2-1-3/h1H,(H,2,3)

> <OPENEYE_INCHIKEY>
BDAGIHXWWSANSR-UHFFFAOYSA-N

> <FORMULA>
CH2O2

$$$$
