@<TRIPOS>MOLECULE
/home/pku/3cl/gett_pdb/8D4M/8D4M_mol2/ligand/8D4M_K36.pdb
 29 30 0 0 0
SMALL
GASTEIGER

@<TRIPOS>ATOM
      1  C7         9.3900    3.2110   22.0940 C.3   401  K36401      0.2368
      2  O8        10.0790    2.2180   22.7800 O.3   401  K36401     -0.4285
      3  C9        10.3750    1.0800   22.0280 C.2   401  K36401      0.4218
      4  O10       10.2160    1.0640   20.8600 O.2   401  K36401     -0.2245
      5  C1         7.8900    3.0690   22.3100 C.ar  401  K36401      0.0213
      6  C2         7.3730    1.9940   23.0080 C.ar  401  K36401     -0.0007
      7  C3         6.0080    1.8800   23.1990 C.ar  401  K36401     -0.0002
      8  C4         5.1550    2.8440   22.6960 C.ar  401  K36401     -0.0000
      9  C5         5.6750    3.9170   21.9990 C.ar  401  K36401     -0.0002
     10  C6         7.0360    4.0290   21.8050 C.ar  401  K36401     -0.0007
     11  N11       10.8860   -0.0860   22.7060 N.am  401  K36401     -0.1611
     12  C12       10.9660   -1.3320   21.9840 C.3   401  K36401      0.1761
     13  C17        9.5550   -1.7770   21.6320 C.2   401  K36401      0.2614
     14  O18        8.6940   -1.7040   22.4280 O.2   401  K36401     -0.2715
     15  C13       11.6270   -2.3930   22.8570 C.3   401  K36401      0.0312
     16  C14       13.0250   -1.9250   23.2400 C.3   401  K36401      0.0022
     17  C15       13.8840   -1.7570   21.9980 C.3   401  K36401      0.0001
     18  C16       13.6980   -2.9070   24.1930 C.3   401  K36401      0.0001
     19  N19        9.2840   -2.2790   20.3060 N.am  401  K36401     -0.2030
     20  C20        7.9590   -2.7240   19.9430 C.3   401  K36401      0.1287
     21  C21        8.0980   -4.2060   19.6030 C.3   401  K36401      0.2036
     22  O22        6.8370   -4.7840   19.2790 O.3   401  K36401     -0.2185
     23  C24        7.4260   -1.8960   18.7590 C.3   401  K36401      0.0335
     24  C25        7.1930   -0.4070   19.1610 C.3   401  K36401      0.0818
     25  C26        6.0470   -0.3490   20.0990 C.3   401  K36401      0.0326
     26  C27        5.2590    0.9130   19.7110 C.3   401  K36401      0.1156
     27  N28        5.6700    1.2520   18.2870 N.am  401  K36401     -0.2054
     28  C29        6.8510    0.4330   17.9580 C.2   401  K36401      0.2410
     29  O30        7.4190    0.4550   16.9360 O.2   401  K36401     -0.2734
@<TRIPOS>BOND
     1    29    28    2
     2    28    27   am
     3    28    24    1
     4    27    26    1
     5    23    24    1
     6    23    20    1
     7    24    25    1
     8    22    21    1
     9    21    20    1
    10    26    25    1
    11    20    19    1
    12    19    13   am
    13     4     3    2
    14    13    12    1
    15    13    14    2
    16    10     9   ar
    17    10     5   ar
    18    12    11    1
    19    12    15    1
    20    17    16    1
    21     9     8   ar
    22     3    11   am
    23     3     2    1
    24     1     5    1
    25     1     2    1
    26     5     6   ar
    27     8     7   ar
    28    15    16    1
    29     6     7   ar
    30    16    18    1
