Y67
  -OEChem-02242320043D

 54 58  0     0  0  0  0  0  0999 V2000
    0.9310    0.6810   -0.9910 C   0  0  0  0  0  0  0  0  0  0  0  0
    2.3780    0.4260   -1.3270 C   0  0  0  0  0  0  0  0  0  0  0  0
    3.7810    1.9500    0.1400 C   0  0  0  0  0  0  0  0  0  0  0  0
    3.8760    1.3270    1.3790 C   0  0  0  0  0  0  0  0  0  0  0  0
    4.5850    1.9310    2.3940 C   0  0  0  0  0  0  0  0  0  0  0  0
    5.2040    3.1560    2.1870 C   0  0  0  0  0  0  0  0  0  0  0  0
    5.1230    3.7840    0.9780 C   0  0  0  0  0  0  0  0  0  0  0  0
    4.4090    3.1910   -0.0710 C   0  0  0  0  0  0  0  0  0  0  0  0
    3.4350    2.6810   -1.9340 N   0  0  0  0  0  0  0  0  0  0  0  0
    0.3970   -1.5390   -1.8410 C   0  0  0  0  0  0  0  0  0  0  0  0
    0.9340   -2.4980   -0.8090 C   0  0  0  0  0  0  0  0  0  0  0  0
    0.0630   -3.2680   -0.0620 C   0  0  0  0  0  0  0  0  0  0  0  0
    0.5550   -4.1480    0.8840 C   0  0  0  0  0  0  0  0  0  0  0  0
    1.9180   -4.2570    1.0840 C   0  0  0  0  0  0  0  0  0  0  0  0
    2.7900   -3.4860    0.3370 C   0  0  0  0  0  0  0  0  0  0  0  0
    2.2980   -2.6100   -0.6140 C   0  0  0  0  0  0  0  0  0  0  0  0
   -1.3090   -0.0910   -0.7710 C   0  0  0  0  0  0  0  0  0  0  0  0
   -2.2280   -1.1280   -0.8720 C   0  0  0  0  0  0  0  0  0  0  0  0
   -3.5300   -0.9390   -0.4610 C   0  0  0  0  0  0  0  0  0  0  0  0
   -3.9250    0.2950    0.0560 C   0  0  0  0  0  0  0  0  0  0  0  0
   -5.3240    0.5010    0.4990 C   0  0  0  0  0  0  0  0  0  0  0  0
   -5.6120    0.7420    1.8330 C   0  0  0  0  0  0  0  0  0  0  0  0
   -6.9440    0.9320    2.2160 C   0  0  0  0  0  0  0  0  0  0  0  0
   -7.9310    0.8790    1.2910 C   0  0  0  0  0  0  0  0  0  0  0  0
   -6.3870    0.4610   -0.4360 C   0  0  0  0  0  0  0  0  0  0  0  0
   -3.0000    1.3340    0.1570 C   0  0  0  0  0  0  0  0  0  0  0  0
   -1.6980    1.1380   -0.2500 C   0  0  0  0  0  0  0  0  0  0  0  0
    0.5920    1.7580   -0.5480 O   0  0  0  0  0  0  0  0  0  0  0  0
    3.1640    1.6290   -1.0460 N   0  0  0  0  0  0  0  0  0  0  0  0
    4.1560    3.5660   -1.3410 N   0  0  0  0  0  0  0  0  0  0  0  0
    0.0120   -0.2850   -1.1890 N   0  0  0  0  0  0  0  0  0  0  0  0
    4.5030   -3.6220    0.5870 Cl  0  0  0  0  0  0  0  0  0  0  0  0
   -7.6540    0.6440   -0.0180 N   0  0  0  0  0  0  0  0  0  0  0  0
   -6.1570    0.2560   -1.6160 O   0  0  0  0  0  0  0  0  0  0  0  0
    2.7500   -0.4010   -0.7220 H   0  0  0  0  0  0  0  0  0  0  0  0
    2.4660    0.1720   -2.3830 H   0  0  0  0  0  0  0  0  0  0  0  0
    3.3950    0.3740    1.5460 H   0  0  0  0  0  0  0  0  0  0  0  0
    4.6590    1.4480    3.3570 H   0  0  0  0  0  0  0  0  0  0  0  0
    5.7560    3.6180    2.9920 H   0  0  0  0  0  0  0  0  0  0  0  0
    5.6090    4.7370    0.8300 H   0  0  0  0  0  0  0  0  0  0  0  0
    1.1660   -1.3400   -2.5870 H   0  0  0  0  0  0  0  0  0  0  0  0
   -0.4740   -1.9790   -2.3260 H   0  0  0  0  0  0  0  0  0  0  0  0
   -1.0020   -3.1830   -0.2180 H   0  0  0  0  0  0  0  0  0  0  0  0
   -0.1260   -4.7500    1.4670 H   0  0  0  0  0  0  0  0  0  0  0  0
    2.3020   -4.9440    1.8240 H   0  0  0  0  0  0  0  0  0  0  0  0
    2.9790   -2.0110   -1.2010 H   0  0  0  0  0  0  0  0  0  0  0  0
   -1.9220   -2.0830   -1.2720 H   0  0  0  0  0  0  0  0  0  0  0  0
   -4.2440   -1.7450   -0.5400 H   0  0  0  0  0  0  0  0  0  0  0  0
   -4.8200    0.7810    2.5660 H   0  0  0  0  0  0  0  0  0  0  0  0
   -7.1850    1.1200    3.2520 H   0  0  0  0  0  0  0  0  0  0  0  0
   -8.9560    1.0270    1.5980 H   0  0  0  0  0  0  0  0  0  0  0  0
   -3.3030    2.2910    0.5570 H   0  0  0  0  0  0  0  0  0  0  0  0
   -0.9800    1.9410   -0.1690 H   0  0  0  0  0  0  0  0  0  0  0  0
   -8.3790    0.6150   -0.6620 H   0  0  0  0  0  0  0  0  0  0  0  0
  5  6  2  0  0  0  0
  4  5  1  0  0  0  0
  6  7  1  0  0  0  0
 25 34  2  0  0  0  0
 25 33  1  0  0  0  0
 24 33  1  0  0  0  0
  3  4  2  0  0  0  0
 21 25  1  0  0  0  0
  7  8  2  0  0  0  0
 23 24  2  0  0  0  0
  3  8  1  0  0  0  0
  3 29  1  0  0  0  0
  8 30  1  0  0  0  0
 18 19  2  0  0  0  0
 19 20  1  0  0  0  0
 20 21  1  0  0  0  0
 21 22  2  0  0  0  0
 17 18  1  0  0  0  0
 20 26  2  0  0  0  0
  2 29  1  0  0  0  0
  9 29  1  0  0  0  0
 22 23  1  0  0  0  0
  9 30  2  0  0  0  0
  1  2  1  0  0  0  0
 17 31  1  0  0  0  0
 17 27  2  0  0  0  0
 26 27  1  0  0  0  0
  1 31  1  0  0  0  0
  1 28  2  0  0  0  0
 10 31  1  0  0  0  0
 10 11  1  0  0  0  0
 11 12  2  0  0  0  0
 11 16  1  0  0  0  0
 12 13  1  0  0  0  0
 15 16  2  0  0  0  0
 13 14  2  0  0  0  0
 14 15  1  0  0  0  0
 15 32  1  0  0  0  0
  2 35  1  0  0  0  0
  2 36  1  0  0  0  0
  4 37  1  0  0  0  0
  5 38  1  0  0  0  0
  6 39  1  0  0  0  0
  7 40  1  0  0  0  0
 10 41  1  0  0  0  0
 10 42  1  0  0  0  0
 12 43  1  0  0  0  0
 13 44  1  0  0  0  0
 14 45  1  0  0  0  0
 16 46  1  0  0  0  0
 18 47  1  0  0  0  0
 19 48  1  0  0  0  0
 22 49  1  0  0  0  0
 23 50  1  0  0  0  0
 24 51  1  0  0  0  0
 26 52  1  0  0  0  0
 27 53  1  0  0  0  0
 33 54  1  0  0  0  0
M  END
> <OPENEYE_ISO_SMILES>
c1ccc2c(c1)nnn2CC(=O)N(Cc3cccc(c3)Cl)c4ccc(cc4)c5ccc[nH]c5=O

> <OPENEYE_INCHI>
InChI=1S/C26H20ClN5O2/c27-20-6-3-5-18(15-20)16-31(25(33)17-32-24-9-2-1-8-23(24)29-30-32)21-12-10-19(11-13-21)22-7-4-14-28-26(22)34/h1-15H,16-17H2,(H,28,34)

> <OPENEYE_INCHIKEY>
OMFBUEFMMHUWOX-UHFFFAOYSA-N

> <FORMULA>
C26H20ClN5O2

$$$$
