@<TRIPOS>MOLECULE
/home/pku/3cl/gett_pdb/7ZQV/7ZQV_mol2/ligand/7ZQV_XNV.pdb
 38 40 0 0 0
SMALL
GASTEIGER

@<TRIPOS>ATOM
      1  C01      -16.4440    7.1870  -39.0750 C.3   401  XNV401      0.0513
      2  C02      -16.1810    5.8510  -39.6510 C.3   401  XNV401      0.2086
      3  O03      -14.8020    5.7830  -40.1060 O.3   401  XNV401     -0.4485
      4  C04      -13.8660    5.5340  -39.1870 C.2   401  XNV401      0.3170
      5  C05      -13.5130    4.0790  -39.1130 C.3   401  XNV401      0.1113
      6  C06      -13.0830    3.4830  -40.4240 C.3   401  XNV401      0.0333
      7  C07      -13.3030    1.9710  -40.4400 C.3   401  XNV401      0.0964
      8  N08      -13.4770    1.5140  -41.8190 N.am  401  XNV401     -0.2056
      9  C09      -14.6570    1.1100  -42.2910 C.2   401  XNV401      0.2631
     10  C10      -14.7840    0.9130  -43.7990 C.3   401  XNV401      0.1791
     11  N11      -15.6980   -0.2200  -44.0590 N.ar  401  XNV401     -0.2854
     12  C12      -15.2290   -1.5190  -43.7750 C.ar  401  XNV401      0.2766
     13  C13      -16.1300   -2.5620  -43.9940 C.ar  401  XNV401      0.1297
     14  N14      -15.6890   -3.8750  -43.7230 N.am  401  XNV401     -0.1692
     15  C15      -15.5260   -4.9400  -44.5500 C.2   401  XNV401      0.2902
     16  C16      -15.2900   -6.2240  -43.8410 C.ar  401  XNV401      0.1777
     17  N17      -14.6750   -6.2690  -42.6820 N.ar  401  XNV401     -0.0726
     18  O18      -14.6250   -7.6260  -42.3180 O.2   401  XNV401     -0.3576
     19  C19      -15.2350   -8.3510  -43.2770 C.ar  401  XNV401      0.1550
     20  C20      -15.2910   -9.8160  -43.0530 C.3   401  XNV401      0.0754
     21  C21      -15.6610   -7.5150  -44.2470 C.ar  401  XNV401      0.0627
     22  O22      -15.5350   -4.8690  -45.7790 O.2   401  XNV401     -0.2662
     23  C23      -17.4330   -2.3140  -44.4090 C.ar  401  XNV401      0.0230
     24  C24      -17.8510   -1.0090  -44.6300 C.ar  401  XNV401      0.0202
     25  C25      -16.9910    0.0050  -44.4440 C.ar  401  XNV401      0.0788
     26  O26      -14.0750   -1.6500  -43.3810 O.2   401  XNV401     -0.2655
     27  C27      -15.1800    2.2430  -44.4360 C.3   401  XNV401      0.1091
     28  C28      -14.6230    2.4170  -45.7890 C.1   401  XNV401     -0.0754
     29  C29      -14.3670    2.6940  -46.9290 C.1   401  XNV401     -0.0141
     30  O30      -15.6200    0.8970  -41.5530 O.2   401  XNV401     -0.2713
     31  C31      -12.2110    1.1570  -39.7310 C.3   401  XNV401      0.0309
     32  C32      -12.7060   -0.2460  -39.3740 C.3   401  XNV401      0.0817
     33  C33      -13.8620   -0.3570  -38.3840 C.3   401  XNV401      0.0326
     34  C34      -13.6610   -1.7230  -37.7360 C.3   401  XNV401      0.1156
     35  N35      -12.2200   -1.9230  -37.8540 N.am  401  XNV401     -0.2054
     36  C36      -11.6480   -1.1380  -38.7570 C.2   401  XNV401      0.2410
     37  O37      -10.4490   -1.1410  -39.0580 O.2   401  XNV401     -0.2734
     38  O38      -13.3510    6.3830  -38.5030 O.2   401  XNV401     -0.2501
@<TRIPOS>BOND
     1    29    28    3
     2    28    27    1
     3    22    15    2
     4    24    25   ar
     5    24    23   ar
     6    15    16    1
     7    15    14   am
     8    25    11   ar
     9    27    10    1
    10    23    13   ar
    11    21    16   ar
    12    21    19   ar
    13    11    10    1
    14    11    12   ar
    15    13    12   ar
    16    13    14    1
    17    16    17   ar
    18    10     9    1
    19    12    26    2
    20    19    20    1
    21    19    18   ar
    22    17    18   ar
    23     9     8   am
    24     9    30    2
    25     8     7    1
    26     7     6    1
    27     7    31    1
    28     6     5    1
    29     3     2    1
    30     3     4    1
    31    31    32    1
    32     2     1    1
    33    32    36    1
    34    32    33    1
    35     4     5    1
    36     4    38    2
    37    37    36    2
    38    36    35   am
    39    33    34    1
    40    35    34    1
