QUR
  -OEChem-02242320033D

 35 37  0     1  0  0  0  0  0999 V2000
    3.2700    0.4070    0.1620 C   0  0  2  0  0  0  0  0  0  0  0  0
    1.8560    0.5860    0.7470 C   0  0  0  0  0  0  0  0  0  0  0  0
   -4.0030   -0.7330   -1.0740 C   0  0  0  0  0  0  0  0  0  0  0  0
   -2.2750   -0.1080    0.1310 C   0  0  0  0  0  0  0  0  0  0  0  0
   -3.2110    0.9260    0.1560 C   0  0  0  0  0  0  0  0  0  0  0  0
    3.3900    1.1370   -1.1500 C   0  0  0  0  0  0  0  0  0  0  0  0
    4.8340   -1.5760    0.3290 C   0  0  0  0  0  0  0  0  0  0  0  0
    3.4260   -1.1170   -0.0520 C   0  0  1  0  0  0  0  0  0  0  0  0
    2.3740   -1.7100    0.9190 C   0  0  0  0  0  0  0  0  0  0  0  0
   -0.0690   -1.0500    0.8090 C   0  0  0  0  0  0  0  0  0  0  0  0
   -1.0690    0.0350    0.8260 C   0  0  0  0  0  0  0  0  0  0  0  0
   -0.8170    1.2110    1.5360 C   0  0  0  0  0  0  0  0  0  0  0  0
   -1.7530    2.2250    1.5520 C   0  0  0  0  0  0  0  0  0  0  0  0
   -2.9470    2.0860    0.8650 C   0  0  0  0  0  0  0  0  0  0  0  0
    1.2460   -0.7550    0.8230 N   0  0  0  0  0  0  0  0  0  0  0  0
   -4.2930    0.5010   -0.6150 N   0  0  0  0  0  0  0  0  0  0  0  0
   -2.7920   -1.1020   -0.6270 O   0  0  0  0  0  0  0  0  0  0  0  0
   -4.7280   -1.4090   -1.7780 O   0  0  0  0  0  0  0  0  0  0  0  0
   -0.4310   -2.2100    0.7810 O   0  0  0  0  0  0  0  0  0  0  0  0
    3.6340    0.5240   -2.1630 O   0  0  0  0  0  0  0  0  0  0  0  0
    3.2270    2.4690   -1.1950 O   0  0  0  0  0  0  0  0  0  0  0  0
    4.0190    0.7680    0.8660 H   0  0  0  0  0  0  0  0  0  0  0  0
    1.9190    1.0220    1.7430 H   0  0  0  0  0  0  0  0  0  0  0  0
    1.2640    1.2270    0.0940 H   0  0  0  0  0  0  0  0  0  0  0  0
    5.0200   -1.3480    1.3780 H   0  0  0  0  0  0  0  0  0  0  0  0
    4.9220   -2.6510    0.1700 H   0  0  0  0  0  0  0  0  0  0  0  0
    5.5660   -1.0570   -0.2900 H   0  0  0  0  0  0  0  0  0  0  0  0
    3.1990   -1.3870   -1.0840 H   0  0  0  0  0  0  0  0  0  0  0  0
    2.0660   -2.7030    0.5910 H   0  0  0  0  0  0  0  0  0  0  0  0
    2.7660   -1.7460    1.9350 H   0  0  0  0  0  0  0  0  0  0  0  0
    0.1120    1.3270    2.0750 H   0  0  0  0  0  0  0  0  0  0  0  0
   -1.5530    3.1320    2.1030 H   0  0  0  0  0  0  0  0  0  0  0  0
   -3.6740    2.8840    0.8820 H   0  0  0  0  0  0  0  0  0  0  0  0
   -5.1050    1.0020   -0.7890 H   0  0  0  0  0  0  0  0  0  0  0  0
    3.3140    2.8930   -2.0590 H   0  0  0  0  0  0  0  0  0  0  0  0
  7  8  1  0  0  0  0
  8  9  1  0  0  0  0
  9 15  1  0  0  0  0
 12 13  2  0  0  0  0
 13 14  1  0  0  0  0
  5 14  2  0  0  0  0
  5 16  1  0  0  0  0
 11 12  1  0  0  0  0
  4 11  2  0  0  0  0
  4 17  1  0  0  0  0
  3 17  1  0  0  0  0
  3 18  2  0  0  0  0
 10 11  1  0  0  0  0
 10 19  2  0  0  0  0
 10 15  1  0  0  0  0
  2 15  1  0  0  0  0
  1  2  1  0  0  0  0
  1  6  1  0  0  0  0
  6 20  2  0  0  0  0
  6 21  1  0  0  0  0
  1  8  1  0  0  0  0
  4  5  1  0  0  0  0
  3 16  1  0  0  0  0
  1 22  1  0  0  0  0
  2 23  1  0  0  0  0
  2 24  1  0  0  0  0
  7 25  1  0  0  0  0
  7 26  1  0  0  0  0
  7 27  1  0  0  0  0
  8 28  1  0  0  0  0
  9 29  1  0  0  0  0
  9 30  1  0  0  0  0
 12 31  1  0  0  0  0
 13 32  1  0  0  0  0
 14 33  1  0  0  0  0
 16 34  1  0  0  0  0
 21 35  1  0  0  0  0
M  END
> <OPENEYE_ISO_SMILES>
C[C@H]1CN(C[C@@H]1C(=O)O)C(=O)c2cccc3c2oc(=O)[nH]3

> <OPENEYE_INCHI>
InChI=1S/C14H14N2O5/c1-7-5-16(6-9(7)13(18)19)12(17)8-3-2-4-10-11(8)21-14(20)15-10/h2-4,7,9H,5-6H2,1H3,(H,15,20)(H,18,19)/t7-,9-/m0/s1

> <OPENEYE_INCHIKEY>
TZMSGRKICMJVLM-CBAPKCEASA-N

> <FORMULA>
C14H14N2O5

$$$$
