QV1
  -OEChem-02242320033D

 35 37  0     1  0  0  0  0  0999 V2000
    3.2480   -0.2470    0.2170 C   0  0  2  0  0  0  0  0  0  0  0  0
    3.7790   -1.1240   -0.8880 C   0  0  0  0  0  0  0  0  0  0  0  0
   -3.2420   -1.0140    0.0140 C   0  0  0  0  0  0  0  0  0  0  0  0
    1.7420   -0.5010    0.4400 C   0  0  0  0  0  0  0  0  0  0  0  0
   -4.0790    0.7230   -1.0680 C   0  0  0  0  0  0  0  0  0  0  0  0
   -2.3490    0.0520    0.1090 C   0  0  0  0  0  0  0  0  0  0  0  0
    4.6420    1.8750    0.1590 C   0  0  0  0  0  0  0  0  0  0  0  0
    3.2920    1.2480   -0.1940 C   0  0  2  0  0  0  0  0  0  0  0  0
    2.1580    1.8440    0.6770 C   0  0  0  0  0  0  0  0  0  0  0  0
   -0.1980    1.0110    0.9260 C   0  0  0  0  0  0  0  0  0  0  0  0
   -1.1530   -0.1090    0.8170 C   0  0  0  0  0  0  0  0  0  0  0  0
   -0.8670   -1.3370    1.4180 C   0  0  0  0  0  0  0  0  0  0  0  0
   -1.7600   -2.3830    1.3150 C   0  0  0  0  0  0  0  0  0  0  0  0
   -2.9440   -2.2260    0.6160 C   0  0  0  0  0  0  0  0  0  0  0  0
    1.1150    0.8030    0.7020 N   0  0  0  0  0  0  0  0  0  0  0  0
   -4.3280   -0.5580   -0.7340 N   0  0  0  0  0  0  0  0  0  0  0  0
   -2.8920    1.0940   -0.5630 O   0  0  0  0  0  0  0  0  0  0  0  0
   -4.8160    1.4340   -1.7240 O   0  0  0  0  0  0  0  0  0  0  0  0
   -0.5960    2.1220    1.2190 O   0  0  0  0  0  0  0  0  0  0  0  0
    4.2450   -0.6240   -1.8850 O   0  0  0  0  0  0  0  0  0  0  0  0
    3.7320   -2.4600   -0.7660 O   0  0  0  0  0  0  0  0  0  0  0  0
    3.8070   -0.4100    1.1380 H   0  0  0  0  0  0  0  0  0  0  0  0
    1.3060   -0.9500   -0.4520 H   0  0  0  0  0  0  0  0  0  0  0  0
    1.6000   -1.1600    1.2960 H   0  0  0  0  0  0  0  0  0  0  0  0
    5.4370    1.3450   -0.3660 H   0  0  0  0  0  0  0  0  0  0  0  0
    4.6450    2.9230   -0.1400 H   0  0  0  0  0  0  0  0  0  0  0  0
    4.8060    1.8030    1.2340 H   0  0  0  0  0  0  0  0  0  0  0  0
    3.0730    1.3680   -1.2560 H   0  0  0  0  0  0  0  0  0  0  0  0
    2.5200    2.0420    1.6860 H   0  0  0  0  0  0  0  0  0  0  0  0
    1.7730    2.7580    0.2260 H   0  0  0  0  0  0  0  0  0  0  0  0
    0.0550   -1.4670    1.9650 H   0  0  0  0  0  0  0  0  0  0  0  0
   -1.5340   -3.3300    1.7820 H   0  0  0  0  0  0  0  0  0  0  0  0
   -3.6380   -3.0500    0.5410 H   0  0  0  0  0  0  0  0  0  0  0  0
   -5.1170   -1.0700   -0.9700 H   0  0  0  0  0  0  0  0  0  0  0  0
    4.0840   -2.9800   -1.5010 H   0  0  0  0  0  0  0  0  0  0  0  0
  7  8  1  0  0  0  0
  8  9  1  0  0  0  0
  9 15  1  0  0  0  0
 12 13  2  0  0  0  0
 13 14  1  0  0  0  0
  3 14  2  0  0  0  0
  3 16  1  0  0  0  0
 11 12  1  0  0  0  0
  6 11  2  0  0  0  0
  6 17  1  0  0  0  0
  5 17  1  0  0  0  0
  5 18  2  0  0  0  0
 10 11  1  0  0  0  0
 10 19  2  0  0  0  0
 10 15  1  0  0  0  0
  4 15  1  0  0  0  0
  1  4  1  0  0  0  0
  1  2  1  0  0  0  0
  2 20  2  0  0  0  0
  2 21  1  0  0  0  0
  1  8  1  0  0  0  0
  3  6  1  0  0  0  0
  5 16  1  0  0  0  0
  1 22  1  0  0  0  0
  4 23  1  0  0  0  0
  4 24  1  0  0  0  0
  7 25  1  0  0  0  0
  7 26  1  0  0  0  0
  7 27  1  0  0  0  0
  8 28  1  0  0  0  0
  9 29  1  0  0  0  0
  9 30  1  0  0  0  0
 12 31  1  0  0  0  0
 13 32  1  0  0  0  0
 14 33  1  0  0  0  0
 16 34  1  0  0  0  0
 21 35  1  0  0  0  0
M  END
> <OPENEYE_ISO_SMILES>
C[C@@H]1CN(C[C@H]1C(=O)O)C(=O)c2cccc3c2oc(=O)[nH]3

> <OPENEYE_INCHI>
InChI=1S/C14H14N2O5/c1-7-5-16(6-9(7)13(18)19)12(17)8-3-2-4-10-11(8)21-14(20)15-10/h2-4,7,9H,5-6H2,1H3,(H,15,20)(H,18,19)/t7-,9-/m1/s1

> <OPENEYE_INCHIKEY>
TZMSGRKICMJVLM-VXNVDRBHSA-N

> <FORMULA>
C14H14N2O5

$$$$
