@<TRIPOS>MOLECULE
/home/pku/3cl/gett_pdb/5RTV/5RTV_mol2/ligand/5RTV_PF0.pdb
 36 33 0 0 0
SMALL
GASTEIGER

@<TRIPOS>ATOM
      1  C1       -44.5940  -33.0880   -0.9040 C.ar  201  PF0201     -0.0199
      2  C1       -47.7090  -28.8650    5.5810 C.ar  201  PF0201     -0.0199
      3  C2       -45.5840  -33.0680    0.0540 C.ar  201  PF0201     -0.0577
      4  C2       -47.9000  -28.9830    4.2360 C.ar  201  PF0201     -0.0577
      5  C3       -45.3710  -32.3860    1.2580 C.ar  201  PF0201     -0.0535
      6  C3       -46.8110  -29.2120    3.4440 C.ar  201  PF0201     -0.0535
      7  C4       -44.1930  -31.7330    1.5260 C.ar  201  PF0201     -0.0112
      8  C4       -45.5600  -29.3680    3.9790 C.ar  201  PF0201     -0.0112
      9  C5       -43.2070  -31.7790    0.5610 C.ar  201  PF0201     -0.0013
     10  C5       -45.3440  -29.2440    5.3360 C.ar  201  PF0201     -0.0013
     11  C6       -43.4070  -32.4610   -0.6170 C.ar  201  PF0201      0.1203
     12  C6       -46.4460  -29.0070    6.1320 C.ar  201  PF0201      0.1203
     13  C7       -41.8620  -31.0830    0.7860 C.3   201  PF0201     -0.0357
     14  C7       -43.9340  -29.3690    5.9100 C.3   201  PF0201     -0.0357
     15  C8       -43.9920  -30.9550    2.8520 C.3   201  PF0201      0.0000
     16  C8       -44.4790  -29.6430    2.9620 C.2   201  PF0201     -0.1256
     17  O1       -43.1630  -31.2570    3.7060 O.co2 201  PF0201     -0.6922
     18  O1       -44.2570  -28.7210    2.0910 O.co2 201  PF0201     -0.8744
     19  O2       -42.3880  -32.4720   -1.5600 O.3   201  PF0201     -0.5065
     20  O2       -46.3440  -28.8790    7.5160 O.3   201  PF0201     -0.5065
     21  O3       -44.6650  -29.9410    3.0950 O.3   201  PF0201     -0.0449
     22  O3       -43.8990  -30.7650    2.9740 O.3   201  PF0201     -0.2629
     23  H36      -44.7070  -33.5570   -1.6990 H     201  PF0201      0.0654
     24  H36      -48.4370  -28.7030    6.1360 H     201  PF0201      0.0654
     25  H37      -46.3950  -33.4960   -0.1030 H     201  PF0201      0.0619
     26  H37      -48.7490  -28.8990    3.8660 H     201  PF0201      0.0619
     27  H38      -46.0560  -32.3560    1.8870 H     201  PF0201      0.0624
     28  H38      -46.9290  -29.3100    2.5270 H     201  PF0201      0.0624
     29  H32      -41.5650  -31.2380    1.6960 H     201  PF0201      0.0279
     30  H32      -43.3170  -28.8490    5.3710 H     201  PF0201      0.0279
     31  H33      -41.9640  -30.1300    0.6390 H     201  PF0201      0.0279
     32  H33      -43.6640  -30.3000    5.9030 H     201  PF0201      0.0279
     33  H34      -41.2000  -31.4340    0.1720 H     201  PF0201      0.0279
     34  H34      -43.9250  -29.0370    6.8210 H     201  PF0201      0.0279
     35  H23      -41.7080  -32.8700   -1.2440 H     201  PF0201      0.2921
     36  H23      -47.1200  -28.7840    7.8500 H     201  PF0201      0.2921
@<TRIPOS>UNITY_ATOM_ATTR
17 1
charge -1
18 1
charge -1
@<TRIPOS>BOND
     1    23     1    1
     2    19    35    1
     3    19    11    1
     4     1    11   ar
     5     1     3   ar
     6    11     9   ar
     7    25     3    1
     8     3     5   ar
     9    33    13    1
    10     9    13    1
    11     9     7   ar
    12    31    13    1
    13    13    29    1
    14     5     7   ar
    15     5    27    1
    16    18    16    2
    17    28     6    1
    18    22    21    1
    19    22    17    1
    20     6     8   ar
    21     6     4   ar
    22    26     4    1
    23     8    10   ar
    24     4     2   ar
    25    10    14    1
    26    10    12   ar
    27    30    14    1
    28     2    12   ar
    29     2    24    1
    30    32    14    1
    31    14    34    1
    32    12    20    1
    33    20    36    1
