R8R
  -OEChem-02242320033D

 45 49  0     1  0  0  0  0  0999 V2000
   -5.3690    0.0120   -1.0560 C   0  0  0  0  0  0  0  0  0  0  0  0
   -0.6410   -0.7780   -0.4940 N   0  0  2  0  0  0  0  0  0  0  0  0
   -3.2930    0.2550   -0.7440 C   0  0  0  0  0  0  0  0  0  0  0  0
   -4.3710   -0.5860   -0.0500 C   0  0  0  0  0  0  0  0  0  0  0  0
   -2.6150   -0.4620   -1.9110 C   0  0  0  0  0  0  0  0  0  0  0  0
   -1.6060   -1.4730   -1.3560 C   0  0  0  0  0  0  0  0  0  0  0  0
    1.1250   -3.7210    0.5010 C   0  0  0  0  0  0  0  0  0  0  0  0
   -3.4840    2.6960    1.4020 O   0  0  0  0  0  0  0  0  0  0  0  0
    2.7030   -2.0460    0.4040 C   0  0  0  0  0  0  0  0  0  0  0  0
    1.8780    1.4220   -0.5250 C   0  0  0  0  0  0  0  0  0  0  0  0
    2.7570    2.4790   -0.6070 C   0  0  0  0  0  0  0  0  0  0  0  0
    4.1040    2.2910   -0.3250 C   0  0  0  0  0  0  0  0  0  0  0  0
    4.5760    1.0470    0.0410 C   0  0  0  0  0  0  0  0  0  0  0  0
    3.7020   -0.0310    0.1280 C   0  0  0  0  0  0  0  0  0  0  0  0
    2.3410    0.1610   -0.1570 C   0  0  0  0  0  0  0  0  0  0  0  0
    1.6940   -1.1480    0.0220 C   0  0  0  0  0  0  0  0  0  0  0  0
    0.3850   -1.6250   -0.1150 C   0  0  0  0  0  0  0  0  0  0  0  0
   -1.2980   -0.1890    0.6790 C   0  0  0  0  0  0  0  0  0  0  0  0
   -4.4110    1.2100   -1.1780 C   0  0  0  0  0  0  0  0  0  0  0  0
   -2.2920    0.8840    0.2230 C   0  0  2  0  0  0  0  0  0  0  0  0
   -3.0240    1.4350    1.4190 C   0  0  0  0  0  0  0  0  0  0  0  0
   -3.1960    0.7430    2.3940 O   0  0  0  0  0  0  0  0  0  0  0  0
    4.9580    3.3350   -0.4090 F   0  0  0  0  0  0  0  0  0  0  0  0
    3.8930   -1.3620    0.4620 N   0  0  0  0  0  0  0  0  0  0  0  0
    2.3700   -3.3160    0.6320 N   0  0  0  0  0  0  0  0  0  0  0  0
    0.1490   -2.9100    0.1390 N   0  0  0  0  0  0  0  0  0  0  0  0
   -5.4630   -0.5670   -1.9750 H   0  0  0  0  0  0  0  0  0  0  0  0
   -6.3340    0.2660   -0.6160 H   0  0  0  0  0  0  0  0  0  0  0  0
   -4.5600   -0.2900    0.9820 H   0  0  0  0  0  0  0  0  0  0  0  0
   -4.2280   -1.6610   -0.1640 H   0  0  0  0  0  0  0  0  0  0  0  0
   -3.3650   -0.9840   -2.5040 H   0  0  0  0  0  0  0  0  0  0  0  0
   -2.0960    0.2660   -2.5340 H   0  0  0  0  0  0  0  0  0  0  0  0
   -1.0780   -1.9500   -2.1810 H   0  0  0  0  0  0  0  0  0  0  0  0
   -2.1320   -2.2300   -0.7750 H   0  0  0  0  0  0  0  0  0  0  0  0
    0.8940   -4.7580    0.6940 H   0  0  0  0  0  0  0  0  0  0  0  0
   -3.9480    3.0050    2.1920 H   0  0  0  0  0  0  0  0  0  0  0  0
    0.8310    1.5710   -0.7450 H   0  0  0  0  0  0  0  0  0  0  0  0
    2.3980    3.4570   -0.8920 H   0  0  0  0  0  0  0  0  0  0  0  0
    5.6250    0.9100    0.2590 H   0  0  0  0  0  0  0  0  0  0  0  0
   -1.8290   -0.9660    1.2270 H   0  0  0  0  0  0  0  0  0  0  0  0
   -0.5470    0.2640    1.3270 H   0  0  0  0  0  0  0  0  0  0  0  0
   -4.3000    1.5790   -2.1970 H   0  0  0  0  0  0  0  0  0  0  0  0
   -4.6110    2.0040   -0.4580 H   0  0  0  0  0  0  0  0  0  0  0  0
   -1.7550    1.6880   -0.2800 H   0  0  0  0  0  0  0  0  0  0  0  0
    4.7460   -1.7550    0.7040 H   0  0  0  0  0  0  0  0  0  0  0  0
  1 19  1  0  0  0  0
  3 19  1  0  0  0  0
  3  5  1  0  0  0  0
  5  6  1  0  0  0  0
  1  4  1  0  0  0  0
  3  4  1  0  0  0  0
  3 20  1  0  0  0  0
  2  6  1  0  0  0  0
 18 20  1  0  0  0  0
 20 21  1  0  0  0  0
  2 18  1  0  0  0  0
  2 17  1  0  0  0  0
 21 22  2  0  0  0  0
  8 21  1  0  0  0  0
 10 11  2  0  0  0  0
 10 15  1  0  0  0  0
 11 12  1  0  0  0  0
 17 26  2  0  0  0  0
 16 17  1  0  0  0  0
 15 16  1  0  0  0  0
 14 15  2  0  0  0  0
 12 23  1  0  0  0  0
 12 13  2  0  0  0  0
  7 26  1  0  0  0  0
  9 16  2  0  0  0  0
 13 14  1  0  0  0  0
 14 24  1  0  0  0  0
  7 25  2  0  0  0  0
  9 24  1  0  0  0  0
  9 25  1  0  0  0  0
  1 27  1  0  0  0  0
  1 28  1  0  0  0  0
  4 29  1  0  0  0  0
  4 30  1  0  0  0  0
  5 31  1  0  0  0  0
  5 32  1  0  0  0  0
  6 33  1  0  0  0  0
  6 34  1  0  0  0  0
  7 35  1  0  0  0  0
  8 36  1  0  0  0  0
 10 37  1  0  0  0  0
 11 38  1  0  0  0  0
 13 39  1  0  0  0  0
 18 40  1  0  0  0  0
 18 41  1  0  0  0  0
 19 42  1  0  0  0  0
 19 43  1  0  0  0  0
 20 44  1  0  0  0  0
 24 45  1  0  0  0  0
M  END
> <OPENEYE_ISO_SMILES>
c1cc2c(cc1F)[nH]c3c2c(ncn3)[N@]4CCC5(CCC5)[C@H](C4)C(=O)O

> <OPENEYE_INCHI>
InChI=1S/C19H19FN4O2/c20-11-2-3-12-14(8-11)23-16-15(12)17(22-10-21-16)24-7-6-19(4-1-5-19)13(9-24)18(25)26/h2-3,8,10,13H,1,4-7,9H2,(H,25,26)(H,21,22,23)/t13-/m1/s1

> <OPENEYE_INCHIKEY>
BNVOKYLFRJDXFX-CYBMUJFWSA-N

> <FORMULA>
C19H19FN4O2

$$$$
