@<TRIPOS>MOLECULE
/home/pku/3cl/gett_pdb/5SPG/5SPG_mol2/ligand/5SPG_RZI.pdb
 33 36 0 0 0
SMALL
GASTEIGER

@<TRIPOS>ATOM
      1  C18      -44.5970  -24.6600   -2.0660 C.3   201  RZI201     -0.0437
      2  C16      -45.2580  -25.2740   -0.8420 C.3   201  RZI201      0.0078
      3  C17      -45.9600  -25.3480   -2.1910 C.3   201  RZI201     -0.0437
      4  C14      -44.6420  -26.3510    0.0210 C.ar  201  RZI201      0.0817
      5  C12      -43.2100  -27.8000    1.3150 C.ar  201  RZI201      0.0004
      6  C11      -44.5580  -28.2960    1.2590 C.ar  201  RZI201      0.0685
      7  C10      -45.1420  -29.5730    1.8760 C.3   201  RZI201      0.0697
      8  C19      -46.0280  -29.4290    4.1670 C.ar  201  RZI201      0.2307
      9  C02      -44.9990  -29.6480    6.2090 C.cat 201  RZI201      0.4052
     10  C04      -47.2670  -29.2380    6.2030 C.3   201  RZI201      0.2799
     11  C06      -47.2340  -29.2180    4.7720 C.ar  201  RZI201      0.1635
     12  C08      -47.5340  -29.1200    2.6090 C.ar  201  RZI201      0.0993
     13  N01      -43.7920  -29.8920    6.9580 N.pl3 201  RZI201     -0.2488
     14  N03      -46.1390  -29.4640    6.8520 N.2   201  RZI201     -0.0788
     15  N05      -48.4680  -29.0420    6.9860 N.3   201  RZI201     -0.2837
     16  N07      -48.1600  -29.0290    3.7930 N.ar  201  RZI201     -0.2316
     17  N09      -46.2270  -29.3540    2.8340 N.ar  201  RZI201     -0.2974
     18  N15      -45.4020  -27.4160    0.4690 N.ar  201  RZI201     -0.2469
     19  N20      -44.9140  -29.6420    4.9000 N.pl3 201  RZI201     -0.0208
     20  S13      -43.0830  -26.4320    0.4830 S.2   201  RZI201     -0.0799
     21 H182      -44.6130  -23.5760   -2.1190 H     201  RZI201      0.0272
     22 H181      -43.7650  -25.2130   -2.5010 H     201  RZI201      0.0272
     23 H161      -45.7170  -24.5080   -0.2320 H     201  RZI201      0.0369
     24 H171      -45.9640  -26.3360   -2.6510 H     201  RZI201      0.0272
     25 H172      -46.8250  -24.6970   -2.2880 H     201  RZI201      0.0272
     26 H121      -42.3780  -28.2790    1.8360 H     201  RZI201      0.0712
     27 H101      -44.3570  -30.1140    2.3790 H     201  RZI201      0.0558
     28 H102      -45.5460  -30.1940    1.0750 H     201  RZI201      0.0558
     29 H081      -48.0120  -29.0120    1.6480 H     201  RZI201      0.1030
     30 H011      -43.1490  -29.1420    7.1190 H     201  RZI201      0.2413
     31 H012      -43.5950  -30.8160    7.2860 H     201  RZI201      0.2413
     32 H051      -49.0210  -29.8400    7.2440 H     201  RZI201      0.1223
     33 H052      -48.7100  -28.1280    7.2920 H     201  RZI201      0.1223
@<TRIPOS>BOND
     1    24     3    1
     2    22     1    1
     3    25     3    1
     4     3     1    1
     5     3     2    1
     6    21     1    1
     7     1     2    1
     8     2    23    1
     9     2     4    1
    10     4    18   ar
    11     4    20   ar
    12    18     6   ar
    13    20     5   ar
    14    28     7    1
    15     6     5   ar
    16     6     7    1
    17     5    26    1
    18    29    12    1
    19     7    27    1
    20     7    17    1
    21    12    17   ar
    22    12    16   ar
    23    17     8   ar
    24    16    11   ar
    25     8    11   ar
    26     8    19    1
    27    11    10    1
    28    19     9    1
    29    10    14    1
    30    10    15    1
    31     9    14    2
    32     9    13    1
    33    13    30    1
    34    13    31    1
    35    15    32    1
    36    15    33    1
