40I
  -OEChem-02242320003D

 70 71  0     1  0  0  0  0  0999 V2000
    5.3070   -0.3020   -0.5290 C   0  0  0  0  0  0  0  0  0  0  0  0
    6.4600   -0.2610    0.3760 C   0  0  0  0  0  0  0  0  0  0  0  0
    7.7650   -0.0970    0.0070 C   0  0  0  0  0  0  0  0  0  0  0  0
    8.5240   -0.1180    1.1870 C   0  0  0  0  0  0  0  0  0  0  0  0
    7.6610   -0.2910    2.2120 C   0  0  0  0  0  0  0  0  0  0  0  0
    5.4710   -0.1900   -1.7300 O   0  0  0  0  0  0  0  0  0  0  0  0
    6.4180   -0.3720    1.7200 O   0  0  0  0  0  0  0  0  0  0  0  0
    4.0660   -0.4700   -0.0320 N   0  0  0  0  0  0  0  0  0  0  0  0
    2.9140   -0.5110   -0.9360 C   0  0  2  0  0  0  0  0  0  0  0  0
    1.6730   -0.0940   -0.1890 C   0  0  0  0  0  0  0  0  0  0  0  0
    1.6600   -0.1150    1.0240 O   0  0  0  0  0  0  0  0  0  0  0  0
    2.7340   -1.9340   -1.4680 C   0  0  0  0  0  0  0  0  0  0  0  0
    3.9290   -2.3040   -2.3490 C   0  0  0  0  0  0  0  0  0  0  0  0
    2.6440   -2.9100   -0.2940 C   0  0  0  0  0  0  0  0  0  0  0  0
    0.5790    0.3030   -0.8680 N   0  0  0  0  0  0  0  0  0  0  0  0
   -0.5860    0.8170   -0.1440 C   0  0  2  0  0  0  0  0  0  0  0  0
   -1.8250    0.6140   -0.9770 C   0  0  0  0  0  0  0  0  0  0  0  0
   -1.7430    0.0910   -2.0680 O   0  0  0  0  0  0  0  0  0  0  0  0
   -0.3960    2.3100    0.1330 C   0  0  0  0  0  0  0  0  0  0  0  0
    0.7890    2.5070    1.0810 C   0  0  0  0  0  0  0  0  0  0  0  0
    1.0560    4.0030    1.2590 C   0  0  0  0  0  0  0  0  0  0  0  0
    0.4640    1.8810    2.4390 C   0  0  0  0  0  0  0  0  0  0  0  0
   -5.4730   -3.0140    0.5030 C   0  0  0  0  0  0  0  0  0  0  0  0
   -4.2290    0.8160   -1.3190 C   0  0  1  0  0  0  0  0  0  0  0  0
   -5.3280   -1.7850   -0.4020 C   0  0  0  0  0  0  0  0  0  0  0  0
   -6.4640   -0.5820    1.4490 C   0  0  0  0  0  0  0  0  0  0  0  0
   -5.4490    0.7100   -0.4010 C   0  0  0  0  0  0  0  0  0  0  0  0
   -4.4040    1.9860   -2.2530 C   0  0  0  0  0  0  0  0  0  0  0  0
   -5.3180   -0.5340    0.4800 C   0  0  2  0  0  0  0  0  0  0  0  0
   -6.8650   -2.9950    1.1350 C   0  0  0  0  0  0  0  0  0  0  0  0
   -3.0250    1.0140   -0.5090 N   0  0  0  0  0  0  0  0  0  0  0  0
   -7.1310   -1.6980    1.7440 N   0  0  0  0  0  0  0  0  0  0  0  0
   -3.6040    2.8910   -2.2430 O   0  0  0  0  0  0  0  0  0  0  0  0
   -6.8010    0.4490    1.9910 O   0  0  0  0  0  0  0  0  0  0  0  0
    8.1390    0.0240   -0.9990 H   0  0  0  0  0  0  0  0  0  0  0  0
    9.5960   -0.0150    1.2620 H   0  0  0  0  0  0  0  0  0  0  0  0
    7.9280   -0.3520    3.2570 H   0  0  0  0  0  0  0  0  0  0  0  0
    3.9350   -0.5630    0.9250 H   0  0  0  0  0  0  0  0  0  0  0  0
    3.0820    0.1700   -1.7700 H   0  0  0  0  0  0  0  0  0  0  0  0
    1.8180   -1.9890   -2.0570 H   0  0  0  0  0  0  0  0  0  0  0  0
    4.8280   -2.3650   -1.7350 H   0  0  0  0  0  0  0  0  0  0  0  0
    3.7470   -3.2690   -2.8220 H   0  0  0  0  0  0  0  0  0  0  0  0
    4.0640   -1.5430   -3.1160 H   0  0  0  0  0  0  0  0  0  0  0  0
    1.7930   -2.6470    0.3340 H   0  0  0  0  0  0  0  0  0  0  0  0
    2.5160   -3.9240   -0.6730 H   0  0  0  0  0  0  0  0  0  0  0  0
    3.5600   -2.8560    0.2950 H   0  0  0  0  0  0  0  0  0  0  0  0
    0.5630    0.2480   -1.8360 H   0  0  0  0  0  0  0  0  0  0  0  0
   -0.6920    0.2830    0.8010 H   0  0  0  0  0  0  0  0  0  0  0  0
   -0.2030    2.8320   -0.8040 H   0  0  0  0  0  0  0  0  0  0  0  0
   -1.3000    2.7120    0.5920 H   0  0  0  0  0  0  0  0  0  0  0  0
    1.6730    2.0270    0.6610 H   0  0  0  0  0  0  0  0  0  0  0  0
    0.1720    4.4830    1.6780 H   0  0  0  0  0  0  0  0  0  0  0  0
    1.9010    4.1430    1.9340 H   0  0  0  0  0  0  0  0  0  0  0  0
    1.2870    4.4480    0.2910 H   0  0  0  0  0  0  0  0  0  0  0  0
    1.3090    2.0220    3.1140 H   0  0  0  0  0  0  0  0  0  0  0  0
   -0.4200    2.3610    2.8580 H   0  0  0  0  0  0  0  0  0  0  0  0
    0.2740    0.8160    2.3120 H   0  0  0  0  0  0  0  0  0  0  0  0
   -5.3530   -3.9210   -0.0900 H   0  0  0  0  0  0  0  0  0  0  0  0
   -4.7150   -2.9860    1.2860 H   0  0  0  0  0  0  0  0  0  0  0  0
   -4.1300   -0.1010   -1.8990 H   0  0  0  0  0  0  0  0  0  0  0  0
   -4.3930   -1.8480   -0.9600 H   0  0  0  0  0  0  0  0  0  0  0  0
   -6.1670   -1.7390   -1.0960 H   0  0  0  0  0  0  0  0  0  0  0  0
   -5.5080    1.5970    0.2290 H   0  0  0  0  0  0  0  0  0  0  0  0
   -6.3530    0.6330   -1.0060 H   0  0  0  0  0  0  0  0  0  0  0  0
   -5.2440    2.0140   -2.9310 H   0  0  0  0  0  0  0  0  0  0  0  0
   -4.3790   -0.4880    1.0330 H   0  0  0  0  0  0  0  0  0  0  0  0
   -7.6130   -3.1930    0.3670 H   0  0  0  0  0  0  0  0  0  0  0  0
   -6.9240   -3.7690    1.9010 H   0  0  0  0  0  0  0  0  0  0  0  0
   -3.0900    1.4320    0.3640 H   0  0  0  0  0  0  0  0  0  0  0  0
   -7.8380   -1.6440    2.4070 H   0  0  0  0  0  0  0  0  0  0  0  0
 28 33  2  0  0  0  0
 24 28  1  0  0  0  0
 20 21  1  0  0  0  0
 24 31  1  0  0  0  0
 24 27  1  0  0  0  0
 19 20  1  0  0  0  0
 20 22  1  0  0  0  0
 16 19  1  0  0  0  0
 17 31  1  0  0  0  0
 27 29  1  0  0  0  0
 17 18  2  0  0  0  0
 16 17  1  0  0  0  0
 15 16  1  0  0  0  0
 25 29  1  0  0  0  0
 26 29  1  0  0  0  0
 10 15  1  0  0  0  0
 23 25  1  0  0  0  0
 23 30  1  0  0  0  0
 26 34  2  0  0  0  0
 26 32  1  0  0  0  0
 10 11  2  0  0  0  0
  9 10  1  0  0  0  0
 30 32  1  0  0  0  0
 12 13  1  0  0  0  0
  9 12  1  0  0  0  0
  8  9  1  0  0  0  0
 12 14  1  0  0  0  0
  1  8  1  0  0  0  0
  1  6  2  0  0  0  0
  1  2  1  0  0  0  0
  2  7  1  0  0  0  0
  2  3  2  0  0  0  0
  5  7  1  0  0  0  0
  3  4  1  0  0  0  0
  4  5  2  0  0  0  0
 31 69  1  0  0  0  0
 19 49  1  0  0  0  0
 19 50  1  0  0  0  0
 21 52  1  0  0  0  0
 21 53  1  0  0  0  0
 21 54  1  0  0  0  0
  9 39  1  0  0  0  0
 12 40  1  0  0  0  0
 13 41  1  0  0  0  0
 13 42  1  0  0  0  0
 13 43  1  0  0  0  0
  3 35  1  0  0  0  0
 28 65  1  0  0  0  0
 24 60  1  0  0  0  0
 27 63  1  0  0  0  0
 27 64  1  0  0  0  0
 29 66  1  0  0  0  0
 25 61  1  0  0  0  0
 25 62  1  0  0  0  0
 23 58  1  0  0  0  0
 23 59  1  0  0  0  0
 30 67  1  0  0  0  0
 30 68  1  0  0  0  0
 16 48  1  0  0  0  0
 20 51  1  0  0  0  0
 22 55  1  0  0  0  0
 22 56  1  0  0  0  0
 22 57  1  0  0  0  0
 14 44  1  0  0  0  0
 14 45  1  0  0  0  0
 14 46  1  0  0  0  0
  4 36  1  0  0  0  0
  5 37  1  0  0  0  0
 32 70  1  0  0  0  0
 15 47  1  0  0  0  0
  8 38  1  0  0  0  0
M  END
> <OPENEYE_ISO_SMILES>
CC(C)C[C@@H](C(=O)N[C@@H](C[C@@H]1CCCNC1=O)C=O)NC(=O)[C@H](C(C)C)NC(=O)c2ccco2

> <OPENEYE_INCHI>
InChI=1S/C24H36N4O6/c1-14(2)11-18(22(31)26-17(13-29)12-16-7-5-9-25-21(16)30)27-24(33)20(15(3)4)28-23(32)19-8-6-10-34-19/h6,8,10,13-18,20H,5,7,9,11-12H2,1-4H3,(H,25,30)(H,26,31)(H,27,33)(H,28,32)/t16-,17-,18-,20-/m0/s1

> <OPENEYE_INCHIKEY>
BLZXYDNCPITFHC-JPLJXNOCSA-N

> <FORMULA>
C24H36N4O6

$$$$
