S7V
  -OEChem-02242320043D

 32 33  0     1  0  0  0  0  0999 V2000
   -1.9780    0.0020    0.6370 C   0  0  0  0  0  0  0  0  0  0  0  0
   -2.6280   -1.0530    0.0240 C   0  0  0  0  0  0  0  0  0  0  0  0
   -3.7480   -0.8170   -0.7520 C   0  0  0  0  0  0  0  0  0  0  0  0
   -4.2160    0.4740   -0.9150 C   0  0  0  0  0  0  0  0  0  0  0  0
   -3.5660    1.5280   -0.3020 C   0  0  0  0  0  0  0  0  0  0  0  0
    0.4630   -1.2810   -0.3400 C   0  0  0  0  0  0  0  0  0  0  0  0
    0.4450   -0.1870    0.6420 N   0  0  2  0  0  0  0  0  0  0  0  0
    2.8480    1.2810   -0.1620 C   0  0  0  0  0  0  0  0  0  0  0  0
    4.0460    1.4530   -0.9230 O   0  0  0  0  0  0  0  0  0  0  0  0
    2.8880   -0.0710    0.5530 C   0  0  1  0  0  0  0  0  0  0  0  0
    1.6990   -1.1370   -1.2330 C   0  0  0  0  0  0  0  0  0  0  0  0
    1.6640   -0.2040    1.4630 C   0  0  0  0  0  0  0  0  0  0  0  0
   -0.7570   -0.2550    1.4830 C   0  0  0  0  0  0  0  0  0  0  0  0
   -2.4430    1.2930    0.4700 C   0  0  0  0  0  0  0  0  0  0  0  0
    2.8720   -1.1250   -0.4170 O   0  0  0  0  0  0  0  0  0  0  0  0
   -2.2620   -2.0610    0.1510 H   0  0  0  0  0  0  0  0  0  0  0  0
   -4.2560   -1.6400   -1.2310 H   0  0  0  0  0  0  0  0  0  0  0  0
   -5.0900    0.6580   -1.5220 H   0  0  0  0  0  0  0  0  0  0  0  0
   -3.9310    2.5360   -0.4290 H   0  0  0  0  0  0  0  0  0  0  0  0
    0.5000   -2.2370    0.1810 H   0  0  0  0  0  0  0  0  0  0  0  0
   -0.4360   -1.2340   -0.9540 H   0  0  0  0  0  0  0  0  0  0  0  0
    2.7680    2.0800    0.5750 H   0  0  0  0  0  0  0  0  0  0  0  0
    1.9870    1.3140   -0.8290 H   0  0  0  0  0  0  0  0  0  0  0  0
    4.0890    2.2910   -1.4040 H   0  0  0  0  0  0  0  0  0  0  0  0
    3.7960   -0.1390    1.1510 H   0  0  0  0  0  0  0  0  0  0  0  0
    1.7460   -1.9780   -1.9260 H   0  0  0  0  0  0  0  0  0  0  0  0
    1.6360   -0.2050   -1.7950 H   0  0  0  0  0  0  0  0  0  0  0  0
    1.6410    0.6290    2.1660 H   0  0  0  0  0  0  0  0  0  0  0  0
    1.7200   -1.1430    2.0130 H   0  0  0  0  0  0  0  0  0  0  0  0
   -0.6940    0.4980    2.2690 H   0  0  0  0  0  0  0  0  0  0  0  0
   -0.8300   -1.2450    1.9340 H   0  0  0  0  0  0  0  0  0  0  0  0
   -1.9350    2.1160    0.9490 H   0  0  0  0  0  0  0  0  0  0  0  0
  4  5  2  0  0  0  0
  5 14  1  0  0  0  0
  3  4  1  0  0  0  0
  1 14  2  0  0  0  0
  2  3  2  0  0  0  0
 11 15  1  0  0  0  0
  6 11  1  0  0  0  0
 10 15  1  0  0  0  0
  1  2  1  0  0  0  0
  1 13  1  0  0  0  0
  6  7  1  0  0  0  0
  7 13  1  0  0  0  0
  7 12  1  0  0  0  0
 10 12  1  0  0  0  0
  8 10  1  0  0  0  0
  8  9  1  0  0  0  0
  2 16  1  0  0  0  0
  3 17  1  0  0  0  0
  4 18  1  0  0  0  0
  5 19  1  0  0  0  0
  6 20  1  0  0  0  0
  6 21  1  0  0  0  0
  8 22  1  0  0  0  0
  8 23  1  0  0  0  0
  9 24  1  0  0  0  0
 10 25  1  0  0  0  0
 11 26  1  0  0  0  0
 11 27  1  0  0  0  0
 12 28  1  0  0  0  0
 12 29  1  0  0  0  0
 13 30  1  0  0  0  0
 13 31  1  0  0  0  0
 14 32  1  0  0  0  0
M  END
> <OPENEYE_ISO_SMILES>
c1ccc(cc1)C[N@@]2CCO[C@H](C2)CO

> <OPENEYE_INCHI>
InChI=1S/C12H17NO2/c14-10-12-9-13(6-7-15-12)8-11-4-2-1-3-5-11/h1-5,12,14H,6-10H2/t12-/m1/s1

> <OPENEYE_INCHIKEY>
WQNIKIMRIXHNFF-GFCCVEGCSA-N

> <FORMULA>
C12H17NO2

$$$$
