@<TRIPOS>MOLECULE
/home/pku/3cl/gett_pdb/8ACL/8ACL_mol2/ligand/8ACL_LQL.pdb
 51 54 0 0 0
SMALL
GASTEIGER

@<TRIPOS>ATOM
      1  N1        11.5820    1.3640   19.5470 N.am  401  LQL401     -0.2937
      2  N3         8.7610   -0.1050   16.1850 N.ar  401  LQL401     -0.2625
      3  C4         8.9800   -0.8910   27.1570 C.ar  401  LQL401     -0.0544
      4  C5         7.7690   -1.1540   26.6270 C.ar  401  LQL401     -0.0240
      5  C6        10.2190    0.4820   21.3540 C.3   401  LQL401      0.1157
      6  C7        11.2260    0.1400   20.2520 C.3   401  LQL401      0.0421
      7  C8        12.1630    2.3540   20.4470 C.3   401  LQL401      0.0308
      8  C10       10.0530    1.7540   23.4480 C.ar  401  LQL401      0.0319
      9  C13        8.6610    2.3000   25.7870 C.ar  401  LQL401      0.0594
     10  C15       10.7060    2.3000   24.5370 C.ar  401  LQL401     -0.0392
     11  C17       10.7110    0.6000   17.3940 C.ar  401  LQL401      0.0550
     12  C20       10.7870   -1.3690   16.0340 C.ar  401  LQL401     -0.0429
     13  C21       11.4150   -0.4870   16.8980 C.ar  401  LQL401     -0.0467
     14  N         10.6540   -1.1610   23.0860 N.am  401  LQL401     -0.3091
     15  C          9.8750   -0.8310   22.0500 C.2   401  LQL401      0.2353
     16  O          8.9680   -1.5390   21.6200 O.2   401  LQL401     -0.2737
     17  C1        10.3530   -2.2880   23.9330 C.3   401  LQL401      0.0431
     18  C11        8.6700    1.4890   23.5250 C.ar  401  LQL401     -0.0209
     19  C12        7.9900    1.7740   24.6980 C.ar  401  LQL401      0.0610
     20  C14       10.0160    2.5740   25.7030 C.ar  401  LQL401     -0.0402
     21  C16       11.3460    1.6490   18.2550 C.2   401  LQL401      0.2482
     22  C18        9.3880    0.7370   17.0170 C.ar  401  LQL401      0.0397
     23  C19        9.4720   -1.1340   15.6980 C.ar  401  LQL401      0.0276
     24  C2         9.5730   -1.8240   25.1240 C.ar  401  LQL401      0.0069
     25  C3        10.0430   -1.2710   26.3030 C.ar  401  LQL401     -0.0500
     26  C9        11.1810    2.6840   21.5380 C.3   401  LQL401      0.0288
     27  N2        10.7730    1.4810   22.2700 N.pl3 401  LQL401     -0.3156
     28  O1        11.5870    2.7480   17.7880 O.2   401  LQL401     -0.2699
     29  S          7.8810   -1.8680   25.0980 S.2   401  LQL401     -0.1000
     30 CL          6.2640    1.4860   24.7640 Cl    401  LQL401     -0.0820
     31 CL1         7.8510    2.5860   27.2900 Cl    401  LQL401     -0.0820
     32  H5         9.1680   -0.4390   28.1300 H     401  LQL401      0.0623
     33  H6         6.8020   -0.9520   27.0840 H     401  LQL401      0.0693
     34  H          9.3250    0.9180   20.9120 H     401  LQL401      0.0612
     35  H8        12.1170   -0.3330   20.6620 H     401  LQL401      0.0488
     36  H7        10.8190   -0.5920   19.5570 H     401  LQL401      0.0488
     37  H9        12.4460    3.2580   19.9080 H     401  LQL401      0.0480
     38  H10       13.0980    1.9960   20.8760 H     401  LQL401      0.0480
     39  H15       11.7710    2.5230   24.4920 H     401  LQL401      0.0636
     40  H18       11.3230   -2.2270   15.6320 H     401  LQL401      0.0633
     41  H19       12.4530   -0.6430   17.1880 H     401  LQL401      0.0626
     42  H1        11.4890   -0.6330   23.3200 H     401  LQL401      0.1491
     43  H2        11.2710   -2.7840   24.2440 H     401  LQL401      0.0517
     44  H3         9.7960   -3.0410   23.3780 H     401  LQL401      0.0517
     45  H13        8.1380    1.0640   22.6750 H     401  LQL401      0.0651
     46  H14       10.5290    3.0040   26.5610 H     401  LQL401      0.0633
     47  H16        8.7690    1.5540   17.3840 H     401  LQL401      0.0837
     48  H17        8.9310   -1.7800   15.0090 H     401  LQL401      0.0829
     49  H4        11.0910   -1.1330   26.5650 H     401  LQL401      0.0626
     50  H12       10.2840    3.1630   21.1480 H     401  LQL401      0.0479
     51  H11       11.5910    3.3930   22.2550 H     401  LQL401      0.0479
@<TRIPOS>BOND
     1    48    23    1
     2    40    12    1
     3    23    12   ar
     4    23     2   ar
     5    12    13   ar
     6     2    22   ar
     7    13    41    1
     8    13    11   ar
     9    22    47    1
    10    22    11   ar
    11    11    21    1
    12    28    21    2
    13    21     1   am
    14     1     6    1
    15     1     7    1
    16    36     6    1
    17    37     7    1
    18     6    35    1
    19     6     5    1
    20     7    38    1
    21     7    26    1
    22    34     5    1
    23    50    26    1
    24     5    15    1
    25     5    27    1
    26    26    51    1
    27    26    27    1
    28    16    15    2
    29    15    14   am
    30    27     8    1
    31    45    18    1
    32    14    42    1
    33    14    17    1
    34    44    17    1
    35     8    18   ar
    36     8    10   ar
    37    18    19   ar
    38    17    43    1
    39    17    24    1
    40    39    10    1
    41    10    20   ar
    42    19    30    1
    43    19     9   ar
    44    29    24   ar
    45    29     4   ar
    46    24    25   ar
    47    20     9   ar
    48    20    46    1
    49     9    31    1
    50    25    49    1
    51    25     3   ar
    52     4    33    1
    53     4     3   ar
    54     3    32    1
