@<TRIPOS>MOLECULE
/home/pku/3cl/gett_pdb/5SQC/5SQC_mol2/ligand/5SQC_QOR.pdb
 50 53 0 0 0
SMALL
GASTEIGER

@<TRIPOS>ATOM
      1  C18      -49.2400  -29.1830    6.8470 C.ar  201  QOR201      0.1372
      2  C17      -47.8570  -29.2810    6.7240 C.ar  201  QOR201      0.0681
      3  C15      -48.0760  -29.2040    4.4360 C.ar  201  QOR201      0.1435
      4  C14      -47.4260  -29.2440    3.0530 C.2   201  QOR201      0.2644
      5  C12      -45.2910  -29.6870    1.7500 C.3   201  QOR201      0.0572
      6  C11      -45.1500  -28.3340    1.0030 C.ar  201  QOR201     -0.0199
      7  C10      -46.0780  -27.6060    0.2750 C.ar  201  QOR201     -0.0563
      8  C20      -51.2550  -29.4750    8.3710 C.3   201  QOR201      0.0262
      9  C02      -43.6880  -31.0770    3.1480 C.2   201  QOR201      0.0472
     10  C03      -43.8540  -30.1390    1.9130 C.3   201  QOR201      0.0252
     11  C04      -43.0300  -28.9020    1.9770 C.3   201  QOR201     -0.0140
     12  C05      -43.8180  -27.8730    1.1250 C.ar  201  QOR201     -0.0003
     13  C06      -43.4490  -26.6720    0.5190 C.ar  201  QOR201      0.1204
     14  C08      -44.3890  -25.9440   -0.2070 C.ar  201  QOR201     -0.0199
     15  C09      -45.7030  -26.4100   -0.3260 C.ar  201  QOR201     -0.0580
     16  C21      -51.6650  -29.0400    9.7100 C.3   201  QOR201     -0.0109
     17  C22      -53.1170  -29.4030   10.0180 C.3   201  QOR201      0.0493
     18  C24      -53.0140  -31.1640    8.4640 C.3   201  QOR201      0.0493
     19  C25      -51.5350  -30.9010    8.1920 C.3   201  QOR201     -0.0109
     20  C27      -49.4540  -29.1210    4.5650 C.ar  201  QOR201      0.0602
     21  N13      -46.0140  -29.5720    2.9900 N.am  201  QOR201     -0.3026
     22  N16      -47.3210  -29.2950    5.5180 N.ar  201  QOR201     -0.2454
     23  N19      -49.8410  -29.1740    8.1730 N.pl3 201  QOR201     -0.3249
     24  N26      -50.0090  -29.1130    5.7720 N.ar  201  QOR201     -0.2367
     25  O01      -43.2840  -30.6180    4.2500 O.co2 201  QOR201     -0.5495
     26  O07      -42.1430  -26.1820    0.6180 O.3   201  QOR201     -0.5065
     27  O23      -53.3820  -30.8170    9.8270 O.3   201  QOR201     -0.3796
     28  O28      -48.0610  -29.0340    2.0740 O.2   201  QOR201     -0.2685
     29  O29      -43.9620  -32.3060    3.0400 O.co2 201  QOR201     -0.5495
     30 H171      -47.2190  -29.3460    7.5980 H     201  QOR201      0.0865
     31 H121      -45.8030  -30.4030    1.1000 H     201  QOR201      0.0555
     32 H101      -47.0970  -27.9640    0.1860 H     201  QOR201      0.0621
     33 H201      -51.8180  -28.9290    7.6270 H     201  QOR201      0.0499
     34 H031      -43.5800  -30.6720    1.0140 H     201  QOR201      0.0385
     35 H041      -42.0390  -29.0690    1.5370 H     201  QOR201      0.0321
     36 H042      -42.9530  -28.5310    2.9910 H     201  QOR201      0.0321
     37 H081      -44.1020  -25.0150   -0.6850 H     201  QOR201      0.0654
     38 H091      -46.4270  -25.8370   -0.8880 H     201  QOR201      0.0619
     39 H211      -51.5340  -27.9730    9.8100 H     201  QOR201      0.0305
     40 H212      -51.0500  -29.5590   10.4370 H     201  QOR201      0.0305
     41 H221      -53.7620  -28.8800    9.3170 H     201  QOR201      0.0560
     42 H222      -53.3670  -29.1240   11.0330 H     201  QOR201      0.0560
     43 H241      -53.6260  -30.5770    7.7820 H     201  QOR201      0.0560
     44 H242      -53.2030  -32.2110    8.3200 H     201  QOR201      0.0560
     45 H252      -51.2730  -31.2250    7.1920 H     201  QOR201      0.0305
     46 H251      -50.9610  -31.4630    8.9300 H     201  QOR201      0.0305
     47 H271      -50.0740  -29.0500    3.6770 H     201  QOR201      0.0853
     48 H131      -45.5590  -29.7510    3.8550 H     201  QOR201      0.1497
     49 H191      -49.2740  -28.9290    8.9640 H     201  QOR201      0.1478
     50 H071      -42.1190  -25.4380    1.2000 H     201  QOR201      0.2921
@<TRIPOS>UNITY_ATOM_ATTR
25 1
charge -1
@<TRIPOS>BOND
     1    38    15    1
     2    37    14    1
     3    15    14   ar
     4    15     7   ar
     5    14    13   ar
     6    32     7    1
     7     7     6   ar
     8    13    26    1
     9    13    12   ar
    10    26    50    1
    11     6    12   ar
    12     6     5    1
    13    34    10    1
    14    31     5    1
    15    12    11    1
    16    35    11    1
    17     5    10    1
    18     5    21    1
    19    10    11    1
    20    10     9    1
    21    11    36    1
    22    28     4    2
    23    21     4   am
    24    21    48    1
    25    29     9   ar
    26     4     3    1
    27     9    25   ar
    28    47    20    1
    29     3    20   ar
    30     3    22   ar
    31    20    24   ar
    32    22     2   ar
    33    24     1   ar
    34     2     1   ar
    35     2    30    1
    36     1    23    1
    37    45    19    1
    38    33     8    1
    39    43    18    1
    40    23     8    1
    41    23    49    1
    42    19     8    1
    43    19    18    1
    44    19    46    1
    45    44    18    1
    46     8    16    1
    47    18    27    1
    48    41    17    1
    49    16    39    1
    50    16    17    1
    51    16    40    1
    52    27    17    1
    53    17    42    1
