@<TRIPOS>MOLECULE
/home/pku/3cl/gett_pdb/7TWT/7TWT_mol2/ligand/7TWT_AR6.pdb
 57 60 0 0 0
SMALL
GASTEIGER

@<TRIPOS>ATOM
      1  N1        14.9930    1.6950    6.0680 N.2   201  AR6201     -0.2420
      2  C2        14.7240    0.5130    5.5130 C.2   201  AR6201      0.1049
      3  N3        14.5850    0.2550    4.2160 N.pl3 201  AR6201     -0.1840
      4  C4        14.7590    1.3430    3.4630 C.ar  201  AR6201      0.1528
      5  C5        15.0650    2.6180    3.9130 C.ar  201  AR6201      0.1287
      6  C6        15.1770    2.7580    5.2940 C.3   201  AR6201      0.2004
      7  N6        15.4960    3.9740    5.8900 N.3   201  AR6201     -0.2985
      8  N7        15.2040    3.4670    2.8350 N.ar  201  AR6201     -0.2346
      9  C8        14.9790    2.7110    1.7730 C.ar  201  AR6201      0.0999
     10  N9        14.6960    1.4260    2.1120 N.ar  201  AR6201     -0.2877
     11  PA        18.0620    1.5540   -1.6840 P.3   201  AR6201      0.2182
     12  PB        19.6180   -0.0770   -3.6060 P.3   201  AR6201      0.2182
     13  C1'       14.4030    0.2920    1.2270 C.3   201  AR6201      0.1665
     14  O1A       18.5280    2.1050   -0.3790 O.co2 201  AR6201     -0.4371
     15  O1B       18.4010   -0.3070   -4.4290 O.2   201  AR6201     -0.5170
     16  C1D       21.5840    4.6560   -2.3460 C.3   201  AR6201      0.1854
     17  O1D       21.2730    5.7370   -3.0420 O.3   201  AR6201     -0.3649
     18  C2'       13.9580    0.5420   -0.0880 C.3   201  AR6201      0.1285
     19  O2'       12.5240    0.7580   -0.0290 O.3   201  AR6201     -0.3847
     20  O2A       17.6250    2.5030   -2.7450 O.2   201  AR6201     -0.5170
     21  O2B       20.5310   -1.2100   -3.2990 O.co2 201  AR6201     -0.4371
     22  C2D       23.0830    4.1890   -2.3990 C.3   201  AR6201      0.1339
     23  O2D       23.9740    5.3200   -2.1350 O.3   201  AR6201     -0.3841
     24  C3'       14.3660   -0.7090   -0.8860 C.3   201  AR6201      0.1135
     25  O3'       13.4390   -1.7590   -0.7600 O.3   201  AR6201     -0.3864
     26  O3A       19.2160    0.5490   -2.1660 O.3   201  AR6201     -0.2703
     27  C3D       23.2580    3.5170   -3.5670 C.3   201  AR6201      0.1141
     28  O3D       23.7630    4.3270   -4.6800 O.3   201  AR6201     -0.3864
     29  C4'       15.6730   -1.0930   -0.1470 C.3   201  AR6201      0.1133
     30  O4'       15.6870   -0.4490    1.0770 O.3   201  AR6201     -0.3456
     31  C4D       21.8100    2.9690   -3.9090 C.3   201  AR6201      0.1138
     32  O4D       20.9660    3.4920   -2.9690 O.3   201  AR6201     -0.3407
     33  C5'       16.9580   -0.7180   -0.9100 C.3   201  AR6201      0.0836
     34  O5'       16.8110    0.5800   -1.4550 O.3   201  AR6201     -0.3246
     35  C5D       21.7130    1.4740   -3.8160 C.3   201  AR6201      0.0837
     36  O5D       20.4160    1.1110   -4.2950 O.3   201  AR6201     -0.3246
     37  H2        14.5890   -0.2000    6.0930 H     201  AR6201      0.1015
     38  HN6       16.3100    4.1470    6.1030 H     201  AR6201      0.1209
     39 HN6A       14.8780    4.5520    6.0430 H     201  AR6201      0.1209
     40  H8        14.9810    3.0280    0.9020 H     201  AR6201      0.1030
     41  H1'       13.7780   -0.2640    1.6470 H     201  AR6201      0.0866
     42  H1D       21.3010    4.7380   -1.4550 H     201  AR6201      0.0935
     43  H2'       14.3900    1.3020   -0.4330 H     201  AR6201      0.0665
     44 HO2'       12.2980    1.2610   -0.6520 H     201  AR6201      0.2101
     45  H2D       23.2040    3.5630   -1.7070 H     201  AR6201      0.0671
     46 HO2D       24.4870    5.1270   -1.4840 H     201  AR6201      0.2101
     47  H3'       14.5370   -0.4960   -1.7840 H     201  AR6201      0.0647
     48 HO3'       13.2480   -2.0480   -1.5180 H     201  AR6201      0.2100
     49  H3D       23.8350    2.7910   -3.4180 H     201  AR6201      0.0648
     50 HO3D       23.6240    3.9190   -5.4110 H     201  AR6201      0.2100
     51  H4'       15.6680   -2.0200    0.0060 H     201  AR6201      0.0647
     52  H4D       21.5530    3.2580   -4.7660 H     201  AR6201      0.0647
     53  H5'       17.6860   -0.7300   -0.3200 H     201  AR6201      0.0591
     54 H5'A       17.0990   -1.3370   -1.6000 H     201  AR6201      0.0591
     55  H5D       21.8160    1.1930   -2.8930 H     201  AR6201      0.0591
     56 H5DA       22.3970    1.0630   -4.3650 H     201  AR6201      0.0591
     57  HD1       20.7930    6.2520   -2.5650 H     201  AR6201      0.2126
@<TRIPOS>UNITY_ATOM_ATTR
14 1
charge -1
21 1
charge -1
@<TRIPOS>BOND
     1    50    28    1
     2    52    31    1
     3    28    27    1
     4    15    12    2
     5    56    35    1
     6    36    35    1
     7    36    12    1
     8    31    35    1
     9    31    27    1
    10    31    32    1
    11    35    55    1
    12    12    21    1
    13    12    26    1
    14    27    49    1
    15    27    22    1
    16    17    57    1
    17    17    16    1
    18    32    16    1
    19    20    11    2
    20    22    16    1
    21    22    23    1
    22    22    45    1
    23    16    42    1
    24    26    11    1
    25    23    46    1
    26    47    24    1
    27    11    34    1
    28    11    14    1
    29    54    33    1
    30    48    25    1
    31    34    33    1
    32    33    53    1
    33    33    29    1
    34    24    25    1
    35    24    29    1
    36    24    18    1
    37    44    19    1
    38    43    18    1
    39    29    51    1
    40    29    30    1
    41    18    19    1
    42    18    13    1
    43    40     9    1
    44    30    13    1
    45    13    41    1
    46    13    10    1
    47     9    10   ar
    48     9     8   ar
    49    10     4   ar
    50     8     5   ar
    51     4     5   ar
    52     4     3    1
    53     5     6    1
    54     3     2    1
    55     6     7    1
    56     6     1    1
    57     2     1    2
    58     2    37    1
    59     7    39    1
    60     7    38    1
