8UI
  -OEChem-02242320013D

 67 69  0     1  0  0  0  0  0999 V2000
   -4.0130   -0.9320   -0.6640 C   0  0  0  0  0  0  0  0  0  0  0  0
    1.7660    2.6970   -0.3970 C   0  0  0  0  0  0  0  0  0  0  0  0
   -0.6790    2.3240   -0.7490 C   0  0  0  0  0  0  0  0  0  0  0  0
   -1.5210   -0.5990   -0.6150 C   0  0  0  0  0  0  0  0  0  0  0  0
    0.7500    3.1070   -2.6420 C   0  0  0  0  0  0  0  0  0  0  0  0
    0.8670   -0.1200   -0.5470 C   0  0  2  0  0  0  0  0  0  0  0  0
    1.8740    0.3180    0.4850 C   0  0  0  0  0  0  0  0  0  0  0  0
   -8.4220   -1.7010   -0.9780 C   0  0  0  0  0  0  0  0  0  0  0  0
    4.1700    0.7110    1.2010 C   0  0  1  0  0  0  0  0  0  0  0  0
    5.5120    0.0330    0.9240 C   0  0  0  0  0  0  0  0  0  0  0  0
   -5.1160   -0.4950    0.1050 C   0  0  0  0  0  0  0  0  0  0  0  0
    5.3690   -1.4780    1.1140 C   0  0  2  0  0  0  0  0  0  0  0  0
    6.7220   -2.1850    0.8690 C   0  0  0  0  0  0  0  0  0  0  0  0
    6.6100   -2.5710   -0.6230 C   0  0  0  0  0  0  0  0  0  0  0  0
    4.4510   -2.0600    0.0620 C   0  0  0  0  0  0  0  0  0  0  0  0
   -4.6060    0.3260    1.1290 C   0  0  0  0  0  0  0  0  0  0  0  0
   -2.8890   -0.3930   -0.1220 C   0  0  0  0  0  0  0  0  0  0  0  0
    0.9840    0.7720   -1.7840 C   0  0  0  0  0  0  0  0  0  0  0  0
   -5.4790    0.9000    2.0490 C   0  0  0  0  0  0  0  0  0  0  0  0
   -6.8330    0.6650    1.9550 C   0  0  0  0  0  0  0  0  0  0  0  0
   -7.3440   -0.1430    0.9490 C   0  0  0  0  0  0  0  0  0  0  0  0
   -6.5010   -0.7250    0.0240 C   0  0  0  0  0  0  0  0  0  0  0  0
    4.3420    2.2300    1.1330 C   0  0  0  0  0  0  0  0  0  0  0  0
    0.7050    2.2250   -1.3930 C   0  0  0  0  0  0  0  0  0  0  0  0
   -3.2400    0.3760    0.9730 N   0  0  0  0  0  0  0  0  0  0  0  0
   -0.4830   -0.0090    0.0100 N   0  0  0  0  0  0  0  0  0  0  0  0
    3.1910    0.2860    0.1980 N   0  0  0  0  0  0  0  0  0  0  0  0
    5.1720   -2.6700   -0.8950 N   0  0  0  0  0  0  0  0  0  0  0  0
   -7.0050   -1.5140   -0.9590 O   0  0  0  0  0  0  0  0  0  0  0  0
    3.2400   -1.9860    0.0790 O   0  0  0  0  0  0  0  0  0  0  0  0
   -1.3250   -1.3030   -1.5880 O   0  0  0  0  0  0  0  0  0  0  0  0
    1.5000    0.7000    1.5740 O   0  0  0  0  0  0  0  0  0  0  0  0
    4.9120    2.5890   -0.1270 O   0  0  0  0  0  0  0  0  0  0  0  0
   -4.0550   -1.5810   -1.5260 H   0  0  0  0  0  0  0  0  0  0  0  0
    1.5360    2.3050    0.5930 H   0  0  0  0  0  0  0  0  0  0  0  0
    2.7460    2.3370   -0.7120 H   0  0  0  0  0  0  0  0  0  0  0  0
    1.7740    3.7870   -0.3630 H   0  0  0  0  0  0  0  0  0  0  0  0
   -1.0300    3.3540   -0.7990 H   0  0  0  0  0  0  0  0  0  0  0  0
   -1.3750    1.6760   -1.2820 H   0  0  0  0  0  0  0  0  0  0  0  0
   -0.6170    2.0110    0.2940 H   0  0  0  0  0  0  0  0  0  0  0  0
    1.7360    3.0370   -3.1020 H   0  0  0  0  0  0  0  0  0  0  0  0
   -0.0060    2.7710   -3.3520 H   0  0  0  0  0  0  0  0  0  0  0  0
    0.5520    4.1420   -2.3640 H   0  0  0  0  0  0  0  0  0  0  0  0
    1.0600   -1.1560   -0.8270 H   0  0  0  0  0  0  0  0  0  0  0  0
   -8.9150   -0.7360   -1.0950 H   0  0  0  0  0  0  0  0  0  0  0  0
   -8.6920   -2.3500   -1.8110 H   0  0  0  0  0  0  0  0  0  0  0  0
   -8.7400   -2.1590   -0.0410 H   0  0  0  0  0  0  0  0  0  0  0  0
    3.8190    0.4300    2.1940 H   0  0  0  0  0  0  0  0  0  0  0  0
    5.8210    0.2430   -0.1010 H   0  0  0  0  0  0  0  0  0  0  0  0
    6.2630    0.4170    1.6150 H   0  0  0  0  0  0  0  0  0  0  0  0
    4.9950   -1.7020    2.1130 H   0  0  0  0  0  0  0  0  0  0  0  0
    7.5550   -1.5020    1.0330 H   0  0  0  0  0  0  0  0  0  0  0  0
    6.8180   -3.0720    1.4950 H   0  0  0  0  0  0  0  0  0  0  0  0
    7.0600   -1.7990   -1.2470 H   0  0  0  0  0  0  0  0  0  0  0  0
    7.0950   -3.5310   -0.8010 H   0  0  0  0  0  0  0  0  0  0  0  0
    1.9900    0.6930   -2.1960 H   0  0  0  0  0  0  0  0  0  0  0  0
    0.2580    0.4520   -2.5330 H   0  0  0  0  0  0  0  0  0  0  0  0
   -5.0940    1.5310    2.8360 H   0  0  0  0  0  0  0  0  0  0  0  0
   -7.5040    1.1140    2.6720 H   0  0  0  0  0  0  0  0  0  0  0  0
   -8.4080   -0.3170    0.8890 H   0  0  0  0  0  0  0  0  0  0  0  0
    3.3700    2.7110    1.2430 H   0  0  0  0  0  0  0  0  0  0  0  0
    5.0020    2.5570    1.9370 H   0  0  0  0  0  0  0  0  0  0  0  0
   -2.6250    0.8690    1.5380 H   0  0  0  0  0  0  0  0  0  0  0  0
   -0.6300    0.4900    0.8290 H   0  0  0  0  0  0  0  0  0  0  0  0
    3.4900   -0.0200   -0.6730 H   0  0  0  0  0  0  0  0  0  0  0  0
    4.7900   -3.1180   -1.6660 H   0  0  0  0  0  0  0  0  0  0  0  0
    5.0500    3.5390   -0.2400 H   0  0  0  0  0  0  0  0  0  0  0  0
  8 29  1  0  0  0  0
 22 29  1  0  0  0  0
 21 22  2  0  0  0  0
 11 22  1  0  0  0  0
 20 21  1  0  0  0  0
  1 11  1  0  0  0  0
 11 16  2  0  0  0  0
  1 17  2  0  0  0  0
 19 20  2  0  0  0  0
 16 19  1  0  0  0  0
 16 25  1  0  0  0  0
  7 32  2  0  0  0  0
  2 24  1  0  0  0  0
 17 25  1  0  0  0  0
  4 17  1  0  0  0  0
  4 26  1  0  0  0  0
  6 26  1  0  0  0  0
  3 24  1  0  0  0  0
 18 24  1  0  0  0  0
  6 18  1  0  0  0  0
  5 24  1  0  0  0  0
  4 31  2  0  0  0  0
  6  7  1  0  0  0  0
  7 27  1  0  0  0  0
 13 14  1  0  0  0  0
 12 13  1  0  0  0  0
 14 28  1  0  0  0  0
  9 27  1  0  0  0  0
  9 23  1  0  0  0  0
  9 10  1  0  0  0  0
 23 33  1  0  0  0  0
 10 12  1  0  0  0  0
 12 15  1  0  0  0  0
 15 28  1  0  0  0  0
 15 30  2  0  0  0  0
  1 34  1  0  0  0  0
  2 35  1  0  0  0  0
  2 36  1  0  0  0  0
  2 37  1  0  0  0  0
  3 38  1  0  0  0  0
  3 39  1  0  0  0  0
  3 40  1  0  0  0  0
  5 41  1  0  0  0  0
  5 42  1  0  0  0  0
  5 43  1  0  0  0  0
  6 44  1  0  0  0  0
  8 45  1  0  0  0  0
  8 46  1  0  0  0  0
  8 47  1  0  0  0  0
  9 48  1  0  0  0  0
 10 49  1  0  0  0  0
 10 50  1  0  0  0  0
 12 51  1  0  0  0  0
 13 52  1  0  0  0  0
 13 53  1  0  0  0  0
 14 54  1  0  0  0  0
 14 55  1  0  0  0  0
 18 56  1  0  0  0  0
 18 57  1  0  0  0  0
 19 58  1  0  0  0  0
 20 59  1  0  0  0  0
 21 60  1  0  0  0  0
 23 61  1  0  0  0  0
 23 62  1  0  0  0  0
 25 63  1  0  0  0  0
 26 64  1  0  0  0  0
 27 65  1  0  0  0  0
 28 66  1  0  0  0  0
 33 67  1  0  0  0  0
M  END
> <OPENEYE_ISO_SMILES>
CC(C)(C)C[C@@H](C(=O)N[C@@H](C[C@@H]1CCNC1=O)CO)NC(=O)c2cc3c([nH]2)cccc3OC

> <OPENEYE_INCHI>
InChI=1S/C24H34N4O5/c1-24(2,3)12-19(23(32)26-15(13-29)10-14-8-9-25-21(14)30)28-22(31)18-11-16-17(27-18)6-5-7-20(16)33-4/h5-7,11,14-15,19,27,29H,8-10,12-13H2,1-4H3,(H,25,30)(H,26,32)(H,28,31)/t14-,15-,19-/m0/s1

> <OPENEYE_INCHIKEY>
TTZNYKDOBZQMLD-DOXZYTNZSA-N

> <FORMULA>
C24H34N4O5

$$$$
