87H
  -OEChem-02242320013D

 37 39  0     1  0  0  0  0  0999 V2000
   -1.5820    1.3870    0.5000 C   0  0  1  0  0  0  0  0  0  0  0  0
   -3.4180   -0.3140    0.4680 C   0  0  0  0  0  0  0  0  0  0  0  0
   -4.6200   -0.7960   -0.0200 C   0  0  0  0  0  0  0  0  0  0  0  0
   -5.2910   -0.1010   -1.0130 C   0  0  0  0  0  0  0  0  0  0  0  0
    1.7890   -0.2760    0.3450 C   0  0  0  0  0  0  0  0  0  0  0  0
    4.0890   -0.7800   -0.2500 C   0  0  0  0  0  0  0  0  0  0  0  0
    3.7370   -2.1390   -0.2490 C   0  0  0  0  0  0  0  0  0  0  0  0
    3.4230    1.5440    0.0580 C   0  0  0  0  0  0  0  0  0  0  0  0
    5.6810    0.9810   -0.5250 C   0  0  0  0  0  0  0  0  0  0  0  0
    5.3950   -0.3500   -0.5380 C   0  0  0  0  0  0  0  0  0  0  0  0
   -2.8910    0.8620   -0.0320 C   0  0  0  0  0  0  0  0  0  0  0  0
    1.5480   -1.6340    0.3130 C   0  0  0  0  0  0  0  0  0  0  0  0
    4.6990    1.9250   -0.2310 C   0  0  0  0  0  0  0  0  0  0  0  0
   -4.7590    1.0710   -1.5150 C   0  0  0  0  0  0  0  0  0  0  0  0
   -3.5640    1.5570   -1.0190 C   0  0  0  0  0  0  0  0  0  0  0  0
   -1.7090    1.6480    2.0020 C   0  0  0  0  0  0  0  0  0  0  0  0
   -0.4970    0.3700    0.2570 C   0  0  0  0  0  0  0  0  0  0  0  0
    3.0930    0.1830    0.0540 C   0  0  0  0  0  0  0  0  0  0  0  0
   -5.1380   -1.9420    0.4710 F   0  0  0  0  0  0  0  0  0  0  0  0
    2.5060   -2.5020    0.0240 N   0  0  0  0  0  0  0  0  0  0  0  0
    0.7660    0.6250    0.6520 N   0  0  0  0  0  0  0  0  0  0  0  0
   -0.7600   -0.6780   -0.2940 O   0  0  0  0  0  0  0  0  0  0  0  0
   -1.3290    2.3170   -0.0100 H   0  0  0  0  0  0  0  0  0  0  0  0
   -2.8940   -0.8540    1.2430 H   0  0  0  0  0  0  0  0  0  0  0  0
   -6.2280   -0.4770   -1.3950 H   0  0  0  0  0  0  0  0  0  0  0  0
    4.4810   -2.8880   -0.4780 H   0  0  0  0  0  0  0  0  0  0  0  0
    2.6720    2.2850    0.2890 H   0  0  0  0  0  0  0  0  0  0  0  0
    6.6860    1.3110   -0.7460 H   0  0  0  0  0  0  0  0  0  0  0  0
    6.1670   -1.0700   -0.7670 H   0  0  0  0  0  0  0  0  0  0  0  0
    0.5540   -1.9980    0.5300 H   0  0  0  0  0  0  0  0  0  0  0  0
    4.9540    2.9750   -0.2280 H   0  0  0  0  0  0  0  0  0  0  0  0
   -5.2820    1.6130   -2.2890 H   0  0  0  0  0  0  0  0  0  0  0  0
   -3.1510    2.4760   -1.4080 H   0  0  0  0  0  0  0  0  0  0  0  0
   -0.7630    2.0270    2.3870 H   0  0  0  0  0  0  0  0  0  0  0  0
   -2.4940    2.3830    2.1780 H   0  0  0  0  0  0  0  0  0  0  0  0
   -1.9620    0.7180    2.5120 H   0  0  0  0  0  0  0  0  0  0  0  0
    0.9650    1.4330    1.1490 H   0  0  0  0  0  0  0  0  0  0  0  0
  9 10  2  0  0  0  0
  9 13  1  0  0  0  0
  6 10  1  0  0  0  0
  8 13  2  0  0  0  0
  6  7  2  0  0  0  0
  6 18  1  0  0  0  0
  7 20  1  0  0  0  0
  8 18  1  0  0  0  0
 12 20  2  0  0  0  0
  5 18  2  0  0  0  0
  5 12  1  0  0  0  0
  5 21  1  0  0  0  0
 17 21  1  0  0  0  0
 17 22  2  0  0  0  0
  1 17  1  0  0  0  0
  1 16  1  0  0  0  0
  1 11  1  0  0  0  0
 11 15  2  0  0  0  0
  2 11  1  0  0  0  0
 14 15  1  0  0  0  0
  2  3  2  0  0  0  0
  4 14  2  0  0  0  0
  3  4  1  0  0  0  0
  3 19  1  0  0  0  0
  1 23  1  0  0  0  0
  2 24  1  0  0  0  0
  4 25  1  0  0  0  0
  7 26  1  0  0  0  0
  8 27  1  0  0  0  0
  9 28  1  0  0  0  0
 10 29  1  0  0  0  0
 12 30  1  0  0  0  0
 13 31  1  0  0  0  0
 14 32  1  0  0  0  0
 15 33  1  0  0  0  0
 16 34  1  0  0  0  0
 16 35  1  0  0  0  0
 16 36  1  0  0  0  0
 21 37  1  0  0  0  0
M  END
> <OPENEYE_ISO_SMILES>
C[C@H](c1cccc(c1)F)C(=O)Nc2cncc3c2cccc3

> <OPENEYE_INCHI>
InChI=1S/C18H15FN2O/c1-12(13-6-4-7-15(19)9-13)18(22)21-17-11-20-10-14-5-2-3-8-16(14)17/h2-12H,1H3,(H,21,22)/t12-/m1/s1

> <OPENEYE_INCHIKEY>
YZVOKFXROIBJSM-GFCCVEGCSA-N

> <FORMULA>
C18H15FN2O

$$$$
