Y4P
  -OEChem-02242320043D

 71 73  0     1  0  0  0  0  0999 V2000
    3.1100    0.2960   -1.0670 C   0  0  1  0  0  0  0  0  0  0  0  0
    4.1670    1.0490   -0.2570 C   0  0  0  0  0  0  0  0  0  0  0  0
    3.5980    2.3960    0.1960 C   0  0  1  0  0  0  0  0  0  0  0  0
    4.6220    3.1570    1.0090 C   0  0  0  0  0  0  0  0  0  0  0  0
    3.7060    4.6980   -0.4680 C   0  0  0  0  0  0  0  0  0  0  0  0
    3.3290    3.3070   -1.0250 C   0  0  0  0  0  0  0  0  0  0  0  0
    3.7210   -0.9880   -1.6330 C   0  0  2  0  0  0  0  0  0  0  0  0
   -5.1010    0.8040    0.1150 C   0  0  0  0  0  0  0  0  0  0  0  0
   -2.7840    0.2330    0.0480 C   0  0  0  0  0  0  0  0  0  0  0  0
   -0.4380   -0.4120    0.1770 C   0  0  1  0  0  0  0  0  0  0  0  0
   -0.4140   -1.8400    0.7240 C   0  0  0  0  0  0  0  0  0  0  0  0
    0.7270   -1.9810    1.7340 C   0  0  0  0  0  0  0  0  0  0  0  0
    0.4280   -1.1200    2.9630 C   0  0  0  0  0  0  0  0  0  0  0  0
    0.8560   -3.4450    2.1570 C   0  0  0  0  0  0  0  0  0  0  0  0
    0.7480   -0.2000   -0.7280 C   0  0  0  0  0  0  0  0  0  0  0  0
   -6.3180    0.8490   -0.8110 C   0  0  2  0  0  0  0  0  0  0  0  0
   -7.5300    1.5050   -0.0830 C   0  0  2  0  0  0  0  0  0  0  0  0
   -7.5860    0.7940    1.3030 C   0  0  0  0  0  0  0  0  0  0  0  0
   -8.0530   -0.6450    0.9860 C   0  0  0  0  0  0  0  0  0  0  0  0
   -8.2360   -0.6680   -0.5620 C   0  0  1  0  0  0  0  0  0  0  0  0
   -8.7260    0.8170   -0.8330 C   0  0  0  0  0  0  0  0  0  0  0  0
   -6.7900   -0.5840   -1.1490 C   0  0  0  0  0  0  0  0  0  0  0  0
   -1.6740   -0.2000   -0.5810 N   0  0  0  0  0  0  0  0  0  0  0  0
    1.9790   -0.0420   -0.2000 N   0  0  0  0  0  0  0  0  0  0  0  0
    4.6650    4.4400    0.6130 N   0  0  0  0  0  0  0  0  0  0  0  0
   -2.7380    0.5350    1.2240 O   0  0  0  0  0  0  0  0  0  0  0  0
    5.3040    2.6780    1.8900 O   0  0  0  0  0  0  0  0  0  0  0  0
    2.7710   -1.6320   -2.4840 O   0  0  0  0  0  0  0  0  0  0  0  0
    0.5970   -0.1720   -1.9310 O   0  0  0  0  0  0  0  0  0  0  0  0
   -3.9450    0.3310   -0.6260 O   0  0  0  0  0  0  0  0  0  0  0  0
    2.7640    0.9250   -1.8870 H   0  0  0  0  0  0  0  0  0  0  0  0
    4.4430    0.4590    0.6170 H   0  0  0  0  0  0  0  0  0  0  0  0
    5.0480    1.2160   -0.8760 H   0  0  0  0  0  0  0  0  0  0  0  0
    2.6840    2.2490    0.7710 H   0  0  0  0  0  0  0  0  0  0  0  0
    4.1690    5.3030   -1.2470 H   0  0  0  0  0  0  0  0  0  0  0  0
    2.8210    5.2000   -0.0760 H   0  0  0  0  0  0  0  0  0  0  0  0
    3.9710    3.0360   -1.8630 H   0  0  0  0  0  0  0  0  0  0  0  0
    2.2790    3.2740   -1.3120 H   0  0  0  0  0  0  0  0  0  0  0  0
    4.1620   -2.1000   -0.2690 S   0  0  0  0  0  0  0  0  0  0  0  0
    4.6150   -0.7430   -2.2060 H   0  0  0  0  0  0  0  0  0  0  0  0
   -4.9000    1.8040    0.5010 H   0  0  0  0  0  0  0  0  0  0  0  0
   -5.3010    0.1280    0.9460 H   0  0  0  0  0  0  0  0  0  0  0  0
   -0.3940    0.2950    1.0050 H   0  0  0  0  0  0  0  0  0  0  0  0
   -1.3630   -2.0570    1.2150 H   0  0  0  0  0  0  0  0  0  0  0  0
   -0.2610   -2.5410   -0.0970 H   0  0  0  0  0  0  0  0  0  0  0  0
    1.6590   -1.6510    1.2760 H   0  0  0  0  0  0  0  0  0  0  0  0
   -0.4670   -1.4930    3.4600 H   0  0  0  0  0  0  0  0  0  0  0  0
    1.2720   -1.1650    3.6510 H   0  0  0  0  0  0  0  0  0  0  0  0
    0.2680   -0.0870    2.6530 H   0  0  0  0  0  0  0  0  0  0  0  0
    1.0690   -4.0590    1.2810 H   0  0  0  0  0  0  0  0  0  0  0  0
    1.6690   -3.5450    2.8760 H   0  0  0  0  0  0  0  0  0  0  0  0
   -0.0770   -3.7750    2.6140 H   0  0  0  0  0  0  0  0  0  0  0  0
   -6.0800    1.3960   -1.7230 H   0  0  0  0  0  0  0  0  0  0  0  0
   -7.5400    2.5950   -0.0610 H   0  0  0  0  0  0  0  0  0  0  0  0
   -6.5970    0.7800    1.7630 H   0  0  0  0  0  0  0  0  0  0  0  0
   -8.3010    1.2920    1.9570 H   0  0  0  0  0  0  0  0  0  0  0  0
   -7.2910   -1.3630    1.2890 H   0  0  0  0  0  0  0  0  0  0  0  0
   -8.9980   -0.8600    1.4840 H   0  0  0  0  0  0  0  0  0  0  0  0
   -8.8590   -1.4700   -0.9570 H   0  0  0  0  0  0  0  0  0  0  0  0
   -9.6810    1.0270   -0.3520 H   0  0  0  0  0  0  0  0  0  0  0  0
   -8.7490    1.0530   -1.8970 H   0  0  0  0  0  0  0  0  0  0  0  0
   -6.8070   -0.7540   -2.2260 H   0  0  0  0  0  0  0  0  0  0  0  0
   -6.1390   -1.3070   -0.6590 H   0  0  0  0  0  0  0  0  0  0  0  0
   -1.6930   -0.3700   -1.5360 H   0  0  0  0  0  0  0  0  0  0  0  0
    2.1150   -0.1530    0.7540 H   0  0  0  0  0  0  0  0  0  0  0  0
    5.2550    5.1110    0.9930 H   0  0  0  0  0  0  0  0  0  0  0  0
    1.9480   -1.8790   -2.0400 H   0  0  0  0  0  0  0  0  0  0  0  0
    5.2430   -1.5630    0.4810 O   0  0  0  0  0  0  0  0  0  0  0  0
    2.9930   -2.5870    0.3750 O   0  0  0  0  0  0  0  0  0  0  0  0
    4.7510   -3.3250   -0.9530 O   0  0  0  0  0  0  0  0  0  0  0  0
    5.0370   -4.0170   -0.3420 H   0  0  0  0  0  0  0  0  0  0  0  0
 19 20  1  0  0  0  0
 18 19  1  0  0  0  0
 20 22  1  0  0  0  0
 20 21  1  0  0  0  0
  4 27  2  0  0  0  0
 17 18  1  0  0  0  0
 16 22  1  0  0  0  0
  4 25  1  0  0  0  0
  3  4  1  0  0  0  0
 17 21  1  0  0  0  0
  5 25  1  0  0  0  0
  8 16  1  0  0  0  0
  8 30  1  0  0  0  0
  9 26  2  0  0  0  0
 16 17  1  0  0  0  0
  2  3  1  0  0  0  0
  3  6  1  0  0  0  0
  9 30  1  0  0  0  0
  9 23  1  0  0  0  0
  5  6  1  0  0  0  0
  1  2  1  0  0  0  0
 12 13  1  0  0  0  0
 10 23  1  0  0  0  0
 10 15  1  0  0  0  0
 10 11  1  0  0  0  0
 15 24  1  0  0  0  0
  1 24  1  0  0  0  0
 15 29  2  0  0  0  0
  1  7  1  0  0  0  0
 11 12  1  0  0  0  0
 12 14  1  0  0  0  0
  7 28  1  0  0  0  0
  1 31  1  0  0  0  0
  2 32  1  0  0  0  0
  2 33  1  0  0  0  0
  3 34  1  0  0  0  0
  5 35  1  0  0  0  0
  5 36  1  0  0  0  0
  6 37  1  0  0  0  0
  6 38  1  0  0  0  0
  7 39  1  0  0  0  0
  7 40  1  0  0  0  0
  8 41  1  0  0  0  0
  8 42  1  0  0  0  0
 10 43  1  0  0  0  0
 11 44  1  0  0  0  0
 11 45  1  0  0  0  0
 12 46  1  0  0  0  0
 13 47  1  0  0  0  0
 13 48  1  0  0  0  0
 13 49  1  0  0  0  0
 14 50  1  0  0  0  0
 14 51  1  0  0  0  0
 14 52  1  0  0  0  0
 16 53  1  0  0  0  0
 17 54  1  0  0  0  0
 18 55  1  0  0  0  0
 18 56  1  0  0  0  0
 19 57  1  0  0  0  0
 19 58  1  0  0  0  0
 20 59  1  0  0  0  0
 21 60  1  0  0  0  0
 21 61  1  0  0  0  0
 22 62  1  0  0  0  0
 22 63  1  0  0  0  0
 23 64  1  0  0  0  0
 24 65  1  0  0  0  0
 25 66  1  0  0  0  0
 28 67  1  0  0  0  0
 39 68  2  0  0  0  0
 39 69  2  0  0  0  0
 39 70  1  0  0  0  0
 70 71  1  0  0  0  0
M  END
> <OPENEYE_ISO_SMILES>
CC(C)C[C@@H](C(=O)N[C@@H](C[C@@H]1CCNC1=O)[C@H](O)S(=O)(=O)O)NC(=O)OC[C@H]2C[C@H]3CC[C@@H]2C3

> <OPENEYE_INCHI>
InChI=1S/C22H37N3O8S/c1-12(2)7-17(25-22(29)33-11-16-9-13-3-4-14(16)8-13)20(27)24-18(21(28)34(30,31)32)10-15-5-6-23-19(15)26/h12-18,21,28H,3-11H2,1-2H3,(H,23,26)(H,24,27)(H,25,29)(H,30,31,32)/t13-,14+,15-,16+,17-,18-,21+/m0/s1

> <OPENEYE_INCHIKEY>
CDEICDIJDMTLMS-NFFJHMNLSA-N

> <FORMULA>
C22H37N3O8S

$$$$
