Y7G
  -OEChem-02242320043D

 71 73  0     1  0  0  0  0  0999 V2000
    2.7280   -0.4410    0.0020 C   0  0  0  0  0  0  0  0  0  0  0  0
    0.3500    0.0290    0.2480 C   0  0  1  0  0  0  0  0  0  0  0  0
    0.2930    1.3390    1.0370 C   0  0  0  0  0  0  0  0  0  0  0  0
    1.4380    1.3730    2.0520 C   0  0  0  0  0  0  0  0  0  0  0  0
    1.4570    2.7320    2.7540 C   0  0  0  0  0  0  0  0  0  0  0  0
    1.2320    0.2670    3.0890 C   0  0  0  0  0  0  0  0  0  0  0  0
   -0.8460   -0.0590   -0.6650 C   0  0  0  0  0  0  0  0  0  0  0  0
   -3.2530   -0.1290   -1.0360 C   0  0  1  0  0  0  0  0  0  0  0  0
   -4.4620   -0.6340   -0.2450 C   0  0  0  0  0  0  0  0  0  0  0  0
   -4.1860   -2.0520    0.2580 C   0  0  1  0  0  0  0  0  0  0  0  0
   -5.3610   -2.5680    1.0590 C   0  0  0  0  0  0  0  0  0  0  0  0
   -4.7380   -4.3060   -0.3500 C   0  0  0  0  0  0  0  0  0  0  0  0
   -4.0770   -3.0360   -0.9300 C   0  0  0  0  0  0  0  0  0  0  0  0
   -3.5610    1.2560   -1.6090 C   0  0  1  0  0  0  0  0  0  0  0  0
    5.0560   -0.9590   -0.0730 C   0  0  0  0  0  0  0  0  0  0  0  0
    6.2250   -0.9320   -1.0600 C   0  0  2  0  0  0  0  0  0  0  0  0
    7.4900   -1.5840   -0.4220 C   0  0  2  0  0  0  0  0  0  0  0  0
    7.5980   -0.9300    0.9890 C   0  0  0  0  0  0  0  0  0  0  0  0
    8.0110    0.5330    0.7110 C   0  0  0  0  0  0  0  0  0  0  0  0
    8.1150    0.6250   -0.8420 C   0  0  1  0  0  0  0  0  0  0  0  0
    8.6270   -0.8340   -1.2000 C   0  0  0  0  0  0  0  0  0  0  0  0
    6.6440    0.5260   -1.3590 C   0  0  0  0  0  0  0  0  0  0  0  0
    1.5770   -0.0080   -0.5500 N   0  0  0  0  0  0  0  0  0  0  0  0
   -2.0910   -0.0430   -0.1480 N   0  0  0  0  0  0  0  0  0  0  0  0
   -5.6510   -3.8290    0.6950 N   0  0  0  0  0  0  0  0  0  0  0  0
    2.7460   -0.8020    1.1630 O   0  0  0  0  0  0  0  0  0  0  0  0
   -5.9540   -1.9360    1.9070 O   0  0  0  0  0  0  0  0  0  0  0  0
   -4.7620    1.1960   -2.3810 O   0  0  0  0  0  0  0  0  0  0  0  0
   -0.6880   -0.1440   -1.8640 O   0  0  0  0  0  0  0  0  0  0  0  0
    3.8550   -0.4800   -0.7330 O   0  0  0  0  0  0  0  0  0  0  0  0
    0.3410   -0.8120    0.9410 H   0  0  0  0  0  0  0  0  0  0  0  0
    0.3910    2.1810    0.3510 H   0  0  0  0  0  0  0  0  0  0  0  0
   -0.6600    1.4070    1.5610 H   0  0  0  0  0  0  0  0  0  0  0  0
    2.3850    1.2160    1.5370 H   0  0  0  0  0  0  0  0  0  0  0  0
    0.5100    2.8890    3.2690 H   0  0  0  0  0  0  0  0  0  0  0  0
    2.2720    2.7560    3.4770 H   0  0  0  0  0  0  0  0  0  0  0  0
    1.6040    3.5200    2.0150 H   0  0  0  0  0  0  0  0  0  0  0  0
    1.2180   -0.7020    2.5890 H   0  0  0  0  0  0  0  0  0  0  0  0
    2.0470    0.2900    3.8120 H   0  0  0  0  0  0  0  0  0  0  0  0
    0.2840    0.4230    3.6040 H   0  0  0  0  0  0  0  0  0  0  0  0
   -3.0380   -0.8200   -1.8510 H   0  0  0  0  0  0  0  0  0  0  0  0
   -4.6420    0.0240    0.6040 H   0  0  0  0  0  0  0  0  0  0  0  0
   -5.3410   -0.6420   -0.8910 H   0  0  0  0  0  0  0  0  0  0  0  0
   -3.2750   -2.0730    0.8560 H   0  0  0  0  0  0  0  0  0  0  0  0
   -5.2940   -4.8310   -1.1270 H   0  0  0  0  0  0  0  0  0  0  0  0
   -3.9810   -4.9620    0.0800 H   0  0  0  0  0  0  0  0  0  0  0  0
   -4.6300   -2.6680   -1.7940 H   0  0  0  0  0  0  0  0  0  0  0  0
   -3.0340   -3.2220   -1.1880 H   0  0  0  0  0  0  0  0  0  0  0  0
   -2.7360    1.5780   -2.2440 H   0  0  0  0  0  0  0  0  0  0  0  0
   -3.7740    2.4390   -0.2500 S   0  0  0  0  0  0  0  0  0  0  0  0
    4.8980   -1.9790    0.2750 H   0  0  0  0  0  0  0  0  0  0  0  0
    5.2840   -0.3160    0.7770 H   0  0  0  0  0  0  0  0  0  0  0  0
    5.9560   -1.4470   -1.9820 H   0  0  0  0  0  0  0  0  0  0  0  0
    7.5270   -2.6730   -0.4460 H   0  0  0  0  0  0  0  0  0  0  0  0
    6.6340   -0.9620    1.4970 H   0  0  0  0  0  0  0  0  0  0  0  0
    8.3580   -1.4350    1.5850 H   0  0  0  0  0  0  0  0  0  0  0  0
    7.2480    1.2170    1.0820 H   0  0  0  0  0  0  0  0  0  0  0  0
    8.9750    0.7530    1.1690 H   0  0  0  0  0  0  0  0  0  0  0  0
    8.6960    1.4600   -1.2320 H   0  0  0  0  0  0  0  0  0  0  0  0
    9.6110   -1.0370   -0.7760 H   0  0  0  0  0  0  0  0  0  0  0  0
    8.6030   -1.0240   -2.2730 H   0  0  0  0  0  0  0  0  0  0  0  0
    6.6010    0.7410   -2.4270 H   0  0  0  0  0  0  0  0  0  0  0  0
    6.0000    1.2100   -0.8070 H   0  0  0  0  0  0  0  0  0  0  0  0
    1.5620    0.2800   -1.4770 H   0  0  0  0  0  0  0  0  0  0  0  0
   -2.2170    0.0250    0.8110 H   0  0  0  0  0  0  0  0  0  0  0  0
   -6.3720   -4.3560    1.0740 H   0  0  0  0  0  0  0  0  0  0  0  0
   -5.5390    0.9160   -1.8780 H   0  0  0  0  0  0  0  0  0  0  0  0
   -4.8940    2.0830    0.5500 O   0  0  0  0  0  0  0  0  0  0  0  0
   -2.5200    2.7490    0.3420 O   0  0  0  0  0  0  0  0  0  0  0  0
   -4.1970    3.7310   -0.9340 O   0  0  0  0  0  0  0  0  0  0  0  0
   -4.3500    4.4660   -0.3250 H   0  0  0  0  0  0  0  0  0  0  0  0
 19 20  1  0  0  0  0
 18 19  1  0  0  0  0
 20 22  1  0  0  0  0
 20 21  1  0  0  0  0
 11 27  2  0  0  0  0
 17 18  1  0  0  0  0
 16 22  1  0  0  0  0
 11 25  1  0  0  0  0
 10 11  1  0  0  0  0
 17 21  1  0  0  0  0
 12 25  1  0  0  0  0
 15 16  1  0  0  0  0
 15 30  1  0  0  0  0
 16 17  1  0  0  0  0
  1 26  2  0  0  0  0
  9 10  1  0  0  0  0
 10 13  1  0  0  0  0
  1 30  1  0  0  0  0
  1 23  1  0  0  0  0
 12 13  1  0  0  0  0
  8  9  1  0  0  0  0
  4  5  1  0  0  0  0
  2 23  1  0  0  0  0
  8 24  1  0  0  0  0
  7 24  1  0  0  0  0
  2  7  1  0  0  0  0
  2  3  1  0  0  0  0
  8 14  1  0  0  0  0
  3  4  1  0  0  0  0
  4  6  1  0  0  0  0
  7 29  2  0  0  0  0
 14 28  1  0  0  0  0
  2 31  1  0  0  0  0
  3 32  1  0  0  0  0
  3 33  1  0  0  0  0
  4 34  1  0  0  0  0
  5 35  1  0  0  0  0
  5 36  1  0  0  0  0
  5 37  1  0  0  0  0
  6 38  1  0  0  0  0
  6 39  1  0  0  0  0
  6 40  1  0  0  0  0
  8 41  1  0  0  0  0
  9 42  1  0  0  0  0
  9 43  1  0  0  0  0
 10 44  1  0  0  0  0
 12 45  1  0  0  0  0
 12 46  1  0  0  0  0
 13 47  1  0  0  0  0
 13 48  1  0  0  0  0
 14 49  1  0  0  0  0
 14 50  1  0  0  0  0
 15 51  1  0  0  0  0
 15 52  1  0  0  0  0
 16 53  1  0  0  0  0
 17 54  1  0  0  0  0
 18 55  1  0  0  0  0
 18 56  1  0  0  0  0
 19 57  1  0  0  0  0
 19 58  1  0  0  0  0
 20 59  1  0  0  0  0
 21 60  1  0  0  0  0
 21 61  1  0  0  0  0
 22 62  1  0  0  0  0
 22 63  1  0  0  0  0
 23 64  1  0  0  0  0
 24 65  1  0  0  0  0
 25 66  1  0  0  0  0
 28 67  1  0  0  0  0
 50 68  2  0  0  0  0
 50 69  2  0  0  0  0
 50 70  1  0  0  0  0
 70 71  1  0  0  0  0
M  END
> <OPENEYE_ISO_SMILES>
CC(C)C[C@@H](C(=O)N[C@@H](C[C@@H]1CCNC1=O)[C@@H](O)S(=O)(=O)O)NC(=O)OC[C@H]2C[C@H]3CC[C@@H]2C3

> <OPENEYE_INCHI>
InChI=1S/C22H37N3O8S/c1-12(2)7-17(25-22(29)33-11-16-9-13-3-4-14(16)8-13)20(27)24-18(21(28)34(30,31)32)10-15-5-6-23-19(15)26/h12-18,21,28H,3-11H2,1-2H3,(H,23,26)(H,24,27)(H,25,29)(H,30,31,32)/t13-,14+,15-,16+,17-,18-,21-/m0/s1

> <OPENEYE_INCHIKEY>
CDEICDIJDMTLMS-JBKSVKCVSA-N

> <FORMULA>
C22H37N3O8S

$$$$
