@<TRIPOS>MOLECULE
/home/pku/3cl/gett_pdb/5RT1/5RT1_mol2/ligand/5RT1_3A9.pdb
 19 20 0 0 0
SMALL
GASTEIGER

@<TRIPOS>ATOM
      1  C1       -46.2280  -29.5000    2.8880 C.2   201  3A9201      0.0717
      2  O1       -45.2720  -29.5770    3.6630 O.co2 201  3A9201     -0.5446
      3  C2       -47.6240  -29.3540    3.4820 C.ar  201  3A9201     -0.0022
      4  O2       -46.0430  -29.5650    1.6320 O.co2 201  3A9201     -0.5446
      5  C3       -48.6500  -29.0250    2.6110 C.ar  201  3A9201     -0.0494
      6  O3       -51.5300  -29.0200    5.0430 O.3   201  3A9201     -0.4914
      7  C4       -49.9310  -28.8790    3.0570 C.ar  201  3A9201     -0.0191
      8  C5       -50.2290  -29.0830    4.3930 C.ar  201  3A9201      0.1238
      9  C6       -51.3220  -29.6710    6.3060 C.3   201  3A9201      0.0937
     10  C7       -49.8760  -29.5180    6.6330 C.3   201  3A9201      0.0101
     11  C8       -49.2220  -29.3840    5.3070 C.ar  201  3A9201     -0.0019
     12  C9       -47.8700  -29.5100    4.8490 C.ar  201  3A9201     -0.0461
     13  H3       -48.4270  -28.8800    1.7150 H     201  3A9201      0.0625
     14  H4       -50.6430  -28.6440    2.5000 H     201  3A9201      0.0654
     15  H6A      -51.5330  -30.6140    6.2200 H     201  3A9201      0.0700
     16  H6B      -51.8530  -29.2290    6.9860 H     201  3A9201      0.0700
     17  H7A      -49.7420  -28.7060    7.1470 H     201  3A9201      0.0347
     18  H7B      -49.5520  -30.3110    7.0840 H     201  3A9201      0.0347
     19  H9       -47.1890  -29.7590    5.4320 H     201  3A9201      0.0628
@<TRIPOS>UNITY_ATOM_ATTR
2 1
charge -1
@<TRIPOS>BOND
     1     4     1   ar
     2    13     5    1
     3    14     7    1
     4     5     7   ar
     5     5     3   ar
     6     1     3    1
     7     1     2   ar
     8     7     8   ar
     9     3    12   ar
    10     8     6    1
    11     8    11   ar
    12    12    11   ar
    13    12    19    1
    14     6     9    1
    15    11    10    1
    16    15     9    1
    17     9    10    1
    18     9    16    1
    19    10    18    1
    20    10    17    1
