GQU
  -OEChem-02242320023D

 62 65  0     1  0  0  0  0  0999 V2000
   -1.0920    1.7520    0.1740 C   0  0  1  0  0  0  0  0  0  0  0  0
   -4.4300    0.4460   -2.5790 C   0  0  0  0  0  0  0  0  0  0  0  0
   -5.0000   -1.0270   -0.6670 C   0  0  0  0  0  0  0  0  0  0  0  0
   -4.0700   -4.2420    0.8710 C   0  0  0  0  0  0  0  0  0  0  0  0
   -5.5240   -2.4820    1.2970 C   0  0  0  0  0  0  0  0  0  0  0  0
    2.5230    0.3710    0.0450 C   0  0  0  0  0  0  0  0  0  0  0  0
    4.5310   -1.0770    0.1900 C   0  0  0  0  0  0  0  0  0  0  0  0
    6.7600   -0.7930    1.0220 C   0  0  0  0  0  0  0  0  0  0  0  0
    0.4420   -0.5550    0.6640 O   0  0  0  0  0  0  0  0  0  0  0  0
    1.0330    0.4250    0.2610 C   0  0  0  0  0  0  0  0  0  0  0  0
    0.3550    1.5620    0.0070 N   0  0  0  0  0  0  0  0  0  0  0  0
    0.9440    2.8190   -0.4840 C   0  0  0  0  0  0  0  0  0  0  0  0
   -0.0360    3.9310   -0.0450 C   0  0  2  0  0  0  0  0  0  0  0  0
    0.1110    4.1380    1.4790 C   0  0  0  0  0  0  0  0  0  0  0  0
   -1.3180    4.4310    1.9770 C   0  0  0  0  0  0  0  0  0  0  0  0
   -2.2790    3.8280    0.9410 C   0  0  0  0  0  0  0  0  0  0  0  0
   -1.4170    3.2150   -0.1740 C   0  0  2  0  0  0  0  0  0  0  0  0
   -1.8370    0.8280   -0.7540 C   0  0  0  0  0  0  0  0  0  0  0  0
   -1.2680    0.3340   -1.7050 O   0  0  0  0  0  0  0  0  0  0  0  0
   -3.1370    0.5500   -0.5280 N   0  0  0  0  0  0  0  0  0  0  0  0
   -3.8620   -0.3480   -1.4310 C   0  0  2  0  0  0  0  0  0  0  0  0
   -4.2480    1.6380   -2.6370 O   0  0  0  0  0  0  0  0  0  0  0  0
   -4.4180   -1.9090    0.4390 C   0  0  1  0  0  0  0  0  0  0  0  0
   -3.7260   -3.1520   -0.1680 C   0  0  0  0  0  0  0  0  0  0  0  0
   -5.3070   -3.7900    1.5190 N   0  0  0  0  0  0  0  0  0  0  0  0
   -6.4690   -1.8530    1.7240 O   0  0  0  0  0  0  0  0  0  0  0  0
    3.0410   -1.0230    0.4060 C   0  0  0  0  0  0  0  0  0  0  0  0
    5.3910   -0.7440    1.2190 C   0  0  0  0  0  0  0  0  0  0  0  0
    7.6000   -0.4680    2.0290 F   0  0  0  0  0  0  0  0  0  0  0  0
    7.2690   -1.1760   -0.2070 C   0  0  0  0  0  0  0  0  0  0  0  0
    6.4070   -1.5140   -1.2360 C   0  0  0  0  0  0  0  0  0  0  0  0
    6.9020   -1.8930   -2.4350 F   0  0  0  0  0  0  0  0  0  0  0  0
    5.0370   -1.4640   -1.0370 C   0  0  0  0  0  0  0  0  0  0  0  0
   -1.3750    1.5450    1.2060 H   0  0  0  0  0  0  0  0  0  0  0  0
   -5.0000   -0.0520   -3.3490 H   0  0  0  0  0  0  0  0  0  0  0  0
   -5.6450   -0.2680   -0.2250 H   0  0  0  0  0  0  0  0  0  0  0  0
   -5.5820   -1.6430   -1.3540 H   0  0  0  0  0  0  0  0  0  0  0  0
   -4.2320   -5.1990    0.3750 H   0  0  0  0  0  0  0  0  0  0  0  0
   -3.2700   -4.3310    1.6060 H   0  0  0  0  0  0  0  0  0  0  0  0
    2.7460    0.5830   -1.0000 H   0  0  0  0  0  0  0  0  0  0  0  0
    3.0090    1.1140    0.6780 H   0  0  0  0  0  0  0  0  0  0  0  0
    1.9230    2.9800   -0.0320 H   0  0  0  0  0  0  0  0  0  0  0  0
    1.0300    2.7970   -1.5700 H   0  0  0  0  0  0  0  0  0  0  0  0
    0.0580    4.8510   -0.6230 H   0  0  0  0  0  0  0  0  0  0  0  0
    0.4980    3.2340    1.9490 H   0  0  0  0  0  0  0  0  0  0  0  0
    0.7650    4.9850    1.6860 H   0  0  0  0  0  0  0  0  0  0  0  0
   -1.4770    3.9650    2.9490 H   0  0  0  0  0  0  0  0  0  0  0  0
   -1.4740    5.5080    2.0490 H   0  0  0  0  0  0  0  0  0  0  0  0
   -2.8880    3.0530    1.4070 H   0  0  0  0  0  0  0  0  0  0  0  0
   -2.9210    4.6080    0.5310 H   0  0  0  0  0  0  0  0  0  0  0  0
   -1.8640    3.3320   -1.1610 H   0  0  0  0  0  0  0  0  0  0  0  0
   -3.5920    0.9450    0.2320 H   0  0  0  0  0  0  0  0  0  0  0  0
   -3.1790   -1.1050   -1.8150 H   0  0  0  0  0  0  0  0  0  0  0  0
   -3.7170   -1.3400    1.0500 H   0  0  0  0  0  0  0  0  0  0  0  0
   -2.6480   -3.0040   -0.2360 H   0  0  0  0  0  0  0  0  0  0  0  0
   -4.1480   -3.3960   -1.1430 H   0  0  0  0  0  0  0  0  0  0  0  0
   -5.8920   -4.3620    2.0400 H   0  0  0  0  0  0  0  0  0  0  0  0
    2.8170   -1.2340    1.4510 H   0  0  0  0  0  0  0  0  0  0  0  0
    2.5550   -1.7650   -0.2270 H   0  0  0  0  0  0  0  0  0  0  0  0
    4.9940   -0.4450    2.1780 H   0  0  0  0  0  0  0  0  0  0  0  0
    8.3370   -1.2150   -0.3620 H   0  0  0  0  0  0  0  0  0  0  0  0
    4.3650   -1.7280   -1.8390 H   0  0  0  0  0  0  0  0  0  0  0  0
 31 32  1  0  0  0  0
 31 33  2  0  0  0  0
 30 31  1  0  0  0  0
  7 33  1  0  0  0  0
 13 14  1  0  0  0  0
 12 13  1  0  0  0  0
 13 17  1  0  0  0  0
 14 15  1  0  0  0  0
 11 12  1  0  0  0  0
  8 30  2  0  0  0  0
  7 27  1  0  0  0  0
  7 28  2  0  0  0  0
 16 17  1  0  0  0  0
  1 17  1  0  0  0  0
  6 27  1  0  0  0  0
 15 16  1  0  0  0  0
  8 28  1  0  0  0  0
  8 29  1  0  0  0  0
  1 11  1  0  0  0  0
 10 11  1  0  0  0  0
  6 10  1  0  0  0  0
 18 19  2  0  0  0  0
  1 18  1  0  0  0  0
  9 10  2  0  0  0  0
 18 20  1  0  0  0  0
 20 21  1  0  0  0  0
  4 24  1  0  0  0  0
 23 24  1  0  0  0  0
  2 21  1  0  0  0  0
  3 21  1  0  0  0  0
  4 25  1  0  0  0  0
  2 22  2  0  0  0  0
  3 23  1  0  0  0  0
  5 23  1  0  0  0  0
  5 25  1  0  0  0  0
  5 26  2  0  0  0  0
  1 34  1  0  0  0  0
  2 35  1  0  0  0  0
  3 36  1  0  0  0  0
  3 37  1  0  0  0  0
  4 38  1  0  0  0  0
  4 39  1  0  0  0  0
  6 40  1  0  0  0  0
  6 41  1  0  0  0  0
 12 42  1  0  0  0  0
 12 43  1  0  0  0  0
 13 44  1  0  0  0  0
 14 45  1  0  0  0  0
 14 46  1  0  0  0  0
 15 47  1  0  0  0  0
 15 48  1  0  0  0  0
 16 49  1  0  0  0  0
 16 50  1  0  0  0  0
 17 51  1  0  0  0  0
 20 52  1  0  0  0  0
 21 53  1  0  0  0  0
 23 54  1  0  0  0  0
 24 55  1  0  0  0  0
 24 56  1  0  0  0  0
 25 57  1  0  0  0  0
 27 58  1  0  0  0  0
 27 59  1  0  0  0  0
 28 60  1  0  0  0  0
 30 61  1  0  0  0  0
 33 62  1  0  0  0  0
M  END
> <OPENEYE_ISO_SMILES>
c1c(cc(cc1F)F)CCC(=O)N2C[C@@H]3CCC[C@@H]3[C@H]2C(=O)N[C@@H](C[C@@H]4CCNC4=O)C=O

> <OPENEYE_INCHI>
InChI=1S/C24H29F2N3O4/c25-17-8-14(9-18(26)11-17)4-5-21(31)29-12-16-2-1-3-20(16)22(29)24(33)28-19(13-30)10-15-6-7-27-23(15)32/h8-9,11,13,15-16,19-20,22H,1-7,10,12H2,(H,27,32)(H,28,33)/t15-,16-,19-,20-,22-/m0/s1

> <OPENEYE_INCHIKEY>
ZUAZJPLYYVHKFN-NAFADOBPSA-N

> <FORMULA>
C24H29F2N3O4

$$$$
