TRS
  -OEChem-02242320043D

 20 19  0     0  0  0  0  0  0999 V2000
    0.0130   -0.2960    0.0140 C   0  0  0  0  0  0  0  0  0  0  0  0
   -0.0420    0.9860    0.8480 C   0  0  0  0  0  0  0  0  0  0  0  0
    1.2630   -0.2760   -0.8690 C   0  0  0  0  0  0  0  0  0  0  0  0
   -1.2330   -0.3840   -0.8690 C   0  0  0  0  0  0  0  0  0  0  0  0
    0.0640   -1.4600    0.9080 N   0  3  0  0  0  0  0  0  0  0  0  0
   -0.0910    2.1180   -0.0220 O   0  0  0  0  0  0  0  0  0  0  0  0
    2.4290   -0.3110   -0.0440 O   0  0  0  0  0  0  0  0  0  0  0  0
   -2.4000   -0.4030   -0.0440 O   0  0  0  0  0  0  0  0  0  0  0  0
   -0.9320    0.9720    1.4770 H   0  0  0  0  0  0  0  0  0  0  0  0
    0.8460    1.0490    1.4770 H   0  0  0  0  0  0  0  0  0  0  0  0
    1.2570   -1.1450   -1.5270 H   0  0  0  0  0  0  0  0  0  0  0  0
    1.2690    0.6330   -1.4690 H   0  0  0  0  0  0  0  0  0  0  0  0
   -1.2710    0.4800   -1.5320 H   0  0  0  0  0  0  0  0  0  0  0  0
   -1.1940   -1.2970   -1.4630 H   0  0  0  0  0  0  0  0  0  0  0  0
   -0.7600   -1.4730    1.4900 H   0  0  0  0  0  0  0  0  0  0  0  0
    0.8860   -1.4020    1.4900 H   0  0  0  0  0  0  0  0  0  0  0  0
    0.1000   -2.3050    0.3580 H   0  0  0  0  0  0  0  0  0  0  0  0
   -0.1250    2.9030    0.5420 H   0  0  0  0  0  0  0  0  0  0  0  0
    3.1920   -0.2970   -0.6380 H   0  0  0  0  0  0  0  0  0  0  0  0
   -3.1610   -0.4590   -0.6380 H   0  0  0  0  0  0  0  0  0  0  0  0
  1  2  1  0  0  0  0
  1  3  1  0  0  0  0
  1  4  1  0  0  0  0
  1  5  1  0  0  0  0
  2  6  1  0  0  0  0
  2  9  1  0  0  0  0
  2 10  1  0  0  0  0
  3  7  1  0  0  0  0
  3 11  1  0  0  0  0
  3 12  1  0  0  0  0
  4  8  1  0  0  0  0
  4 13  1  0  0  0  0
  4 14  1  0  0  0  0
  5 15  1  0  0  0  0
  5 16  1  0  0  0  0
  5 17  1  0  0  0  0
  6 18  1  0  0  0  0
  7 19  1  0  0  0  0
  8 20  1  0  0  0  0
M  CHG  1   5   1
M  END
> <OPENEYE_ISO_SMILES>
C(C(CO)(CO)[NH3+])O

> <OPENEYE_INCHI>
InChI=1S/C4H11NO3/c5-4(1-6,2-7)3-8/h6-8H,1-3,5H2/p+1

> <OPENEYE_INCHIKEY>
LENZDBCJOHFCAS-UHFFFAOYSA-O

> <FORMULA>
C4H12NO3+

$$$$
