YU4
  -OEChem-02242320043D

 51 54  0     0  0  0  0  0  0999 V2000
    3.4420    0.9030    0.2370 C   0  0  0  0  0  0  0  0  0  0  0  0
    3.2320    5.3200    0.8450 C   0  0  0  0  0  0  0  0  0  0  0  0
    3.6150    5.7990   -0.3950 C   0  0  0  0  0  0  0  0  0  0  0  0
    3.2880    3.7380   -1.3720 C   0  0  0  0  0  0  0  0  0  0  0  0
    1.2350    1.4930   -0.3360 C   0  0  0  0  0  0  0  0  0  0  0  0
    2.8870    3.1860   -0.1630 C   0  0  0  0  0  0  0  0  0  0  0  0
    4.4960   -2.5050   -0.2570 C   0  0  0  0  0  0  0  0  0  0  0  0
    0.8370    0.1360   -0.2630 C   0  0  0  0  0  0  0  0  0  0  0  0
   -0.5670   -0.2490   -0.5370 C   0  0  0  0  0  0  0  0  0  0  0  0
   -1.5880    0.1850    0.3060 C   0  0  0  0  0  0  0  0  0  0  0  0
    4.7540   -1.3950    1.8900 C   0  0  0  0  0  0  0  0  0  0  0  0
   -5.2250   -0.1680    0.5380 C   0  0  0  0  0  0  0  0  0  0  0  0
   -0.8720   -1.0420   -1.6430 C   0  0  0  0  0  0  0  0  0  0  0  0
   -6.2050    0.3990    1.5670 C   0  0  0  0  0  0  0  0  0  0  0  0
   -7.6270   -0.0420    1.2150 C   0  0  0  0  0  0  0  0  0  0  0  0
   -3.1940   -0.9720   -1.0540 C   0  0  0  0  0  0  0  0  0  0  0  0
    6.0180   -3.3090    1.3230 C   0  0  0  0  0  0  0  0  0  0  0  0
    1.7770   -0.8270    0.0600 C   0  0  0  0  0  0  0  0  0  0  0  0
   -2.8990   -0.1780    0.0450 C   0  0  0  0  0  0  0  0  0  0  0  0
   -2.1820   -1.3990   -1.8950 C   0  0  0  0  0  0  0  0  0  0  0  0
    2.8630    3.9910    0.9730 C   0  0  0  0  0  0  0  0  0  0  0  0
    3.1020   -0.4270    0.3200 C   0  0  0  0  0  0  0  0  0  0  0  0
    4.1290   -1.4370    0.6810 C   0  0  0  0  0  0  0  0  0  0  0  0
   -7.6970   -1.4390    1.2240 F   0  0  0  0  0  0  0  0  0  0  0  0
   -8.5220    0.4760    2.1570 F   0  0  0  0  0  0  0  0  0  0  0  0
   -7.9610    0.4330   -0.0580 F   0  0  0  0  0  0  0  0  0  0  0  0
    2.5110    1.8390   -0.0870 N   0  0  0  0  0  0  0  0  0  0  0  0
    3.6320    5.0080   -1.4500 N   0  0  0  0  0  0  0  0  0  0  0  0
    5.4350   -3.4000    0.1150 N   0  0  0  0  0  0  0  0  0  0  0  0
    5.6950   -2.3390    2.1940 N   0  0  0  0  0  0  0  0  0  0  0  0
    0.4170    2.3520   -0.6210 O   0  0  0  0  0  0  0  0  0  0  0  0
    3.9600   -2.5850   -1.3480 O   0  0  0  0  0  0  0  0  0  0  0  0
    6.8610   -4.1270    1.6360 O   0  0  0  0  0  0  0  0  0  0  0  0
   -3.8970    0.2440    0.8660 O   0  0  0  0  0  0  0  0  0  0  0  0
   -2.5610   -2.3860   -3.2730 Cl  0  0  0  0  0  0  0  0  0  0  0  0
    4.4580    1.2080    0.4360 H   0  0  0  0  0  0  0  0  0  0  0  0
    3.2260    5.9740    1.7040 H   0  0  0  0  0  0  0  0  0  0  0  0
    3.9040    6.8340   -0.5000 H   0  0  0  0  0  0  0  0  0  0  0  0
    3.3110    3.1230   -2.2600 H   0  0  0  0  0  0  0  0  0  0  0  0
   -1.3580    0.8030    1.1620 H   0  0  0  0  0  0  0  0  0  0  0  0
    4.5080   -0.6230    2.6040 H   0  0  0  0  0  0  0  0  0  0  0  0
   -5.2800   -1.2570    0.5450 H   0  0  0  0  0  0  0  0  0  0  0  0
   -5.4860    0.2020   -0.4540 H   0  0  0  0  0  0  0  0  0  0  0  0
   -0.0850   -1.3770   -2.3020 H   0  0  0  0  0  0  0  0  0  0  0  0
   -5.9440    0.0280    2.5590 H   0  0  0  0  0  0  0  0  0  0  0  0
   -6.1500    1.4870    1.5600 H   0  0  0  0  0  0  0  0  0  0  0  0
   -4.2170   -1.2540   -1.2550 H   0  0  0  0  0  0  0  0  0  0  0  0
    1.4960   -1.8680    0.1220 H   0  0  0  0  0  0  0  0  0  0  0  0
    2.5640    3.5900    1.9300 H   0  0  0  0  0  0  0  0  0  0  0  0
    5.6900   -4.1130   -0.4910 H   0  0  0  0  0  0  0  0  0  0  0  0
    6.1400   -2.3070    3.0560 H   0  0  0  0  0  0  0  0  0  0  0  0
  3 28  2  0  0  0  0
  2  3  1  0  0  0  0
  4 28  1  0  0  0  0
  2 21  2  0  0  0  0
  4  6  2  0  0  0  0
  6 21  1  0  0  0  0
  6 27  1  0  0  0  0
  7 32  2  0  0  0  0
  1 27  1  0  0  0  0
  5 27  1  0  0  0  0
  1 22  2  0  0  0  0
  7 29  1  0  0  0  0
  7 23  1  0  0  0  0
 17 29  1  0  0  0  0
  5 31  2  0  0  0  0
  5  8  1  0  0  0  0
 22 23  1  0  0  0  0
 11 23  2  0  0  0  0
 18 22  1  0  0  0  0
 17 33  2  0  0  0  0
 17 30  1  0  0  0  0
 11 30  1  0  0  0  0
  8 18  2  0  0  0  0
  8  9  1  0  0  0  0
  9 10  2  0  0  0  0
  9 13  1  0  0  0  0
 10 19  1  0  0  0  0
 12 14  1  0  0  0  0
 14 15  1  0  0  0  0
 13 20  2  0  0  0  0
 12 34  1  0  0  0  0
 19 34  1  0  0  0  0
 16 19  2  0  0  0  0
 15 24  1  0  0  0  0
 15 25  1  0  0  0  0
 15 26  1  0  0  0  0
 16 20  1  0  0  0  0
 20 35  1  0  0  0  0
  1 36  1  0  0  0  0
  2 37  1  0  0  0  0
  3 38  1  0  0  0  0
  4 39  1  0  0  0  0
 10 40  1  0  0  0  0
 11 41  1  0  0  0  0
 12 42  1  0  0  0  0
 12 43  1  0  0  0  0
 13 44  1  0  0  0  0
 14 45  1  0  0  0  0
 14 46  1  0  0  0  0
 16 47  1  0  0  0  0
 18 48  1  0  0  0  0
 21 49  1  0  0  0  0
 29 50  1  0  0  0  0
 30 51  1  0  0  0  0
M  END
> <OPENEYE_ISO_SMILES>
c1cc(cnc1)n2cc(cc(c2=O)c3cc(cc(c3)Cl)OCCC(F)(F)F)c4c[nH]c(=O)[nH]c4=O

> <OPENEYE_INCHI>
InChI=1S/C23H16ClF3N4O4/c24-15-6-13(7-17(9-15)35-5-3-23(25,26)27)18-8-14(19-11-29-22(34)30-20(19)32)12-31(21(18)33)16-2-1-4-28-10-16/h1-2,4,6-12H,3,5H2,(H2,29,30,32,34)

> <OPENEYE_INCHIKEY>
BHQBUUBHCKLKLD-UHFFFAOYSA-N

> <FORMULA>
C23H16ClF3N4O4

$$$$
