3XH
  -OEChem-02242320003D

 23 23  0     0  0  0  0  0  0999 V2000
    3.5260   -1.4160    0.0120 O   0  0  0  0  0  0  0  0  0  0  0  0
    3.7830   -0.2350    0.0070 C   0  0  0  0  0  0  0  0  0  0  0  0
    5.0610    0.1750    0.0040 O   0  0  0  0  0  0  0  0  0  0  0  0
    2.6670    0.7780   -0.0000 C   0  0  0  0  0  0  0  0  0  0  0  0
    1.3770    0.0840   -0.0010 N   0  0  0  0  0  0  0  0  0  0  0  0
    0.2300    0.7920   -0.0070 C   0  0  0  0  0  0  0  0  0  0  0  0
    0.2660    2.0070   -0.0120 O   0  0  0  0  0  0  0  0  0  0  0  0
   -1.0720    0.0910   -0.0080 C   0  0  0  0  0  0  0  0  0  0  0  0
   -1.1160   -1.3040   -0.0020 C   0  0  0  0  0  0  0  0  0  0  0  0
   -2.3330   -1.9550   -0.0030 C   0  0  0  0  0  0  0  0  0  0  0  0
   -3.5100   -1.2290   -0.0090 C   0  0  0  0  0  0  0  0  0  0  0  0
   -3.4760    0.1580   -0.0150 C   0  0  0  0  0  0  0  0  0  0  0  0
   -4.6360    0.8660   -0.0210 O   0  0  0  0  0  0  0  0  0  0  0  0
   -2.2600    0.8220   -0.0090 C   0  0  0  0  0  0  0  0  0  0  0  0
    5.7420   -0.5120    0.0050 H   0  0  0  0  0  0  0  0  0  0  0  0
    2.7410    1.4060    0.8870 H   0  0  0  0  0  0  0  0  0  0  0  0
    2.7460    1.3990   -0.8920 H   0  0  0  0  0  0  0  0  0  0  0  0
    1.3480   -0.8860    0.0030 H   0  0  0  0  0  0  0  0  0  0  0  0
   -0.1990   -1.8740    0.0030 H   0  0  0  0  0  0  0  0  0  0  0  0
   -2.3660   -3.0340    0.0010 H   0  0  0  0  0  0  0  0  0  0  0  0
   -4.4590   -1.7440   -0.0100 H   0  0  0  0  0  0  0  0  0  0  0  0
   -4.9740    1.0750    0.8600 H   0  0  0  0  0  0  0  0  0  0  0  0
   -2.2320    1.9010   -0.0130 H   0  0  0  0  0  0  0  0  0  0  0  0
  1  2  2  0  0  0  0
  2  4  1  0  0  0  0
  2  3  1  0  0  0  0
  3 15  1  0  0  0  0
  4  5  1  0  0  0  0
  4 16  1  0  0  0  0
  4 17  1  0  0  0  0
  5  6  1  0  0  0  0
  5 18  1  0  0  0  0
  6  7  2  0  0  0  0
  6  8  1  0  0  0  0
  8 14  2  0  0  0  0
  8  9  1  0  0  0  0
  9 10  2  0  0  0  0
  9 19  1  0  0  0  0
 10 11  1  0  0  0  0
 10 20  1  0  0  0  0
 11 12  2  0  0  0  0
 11 21  1  0  0  0  0
 12 13  1  0  0  0  0
 12 14  1  0  0  0  0
 13 22  1  0  0  0  0
 14 23  1  0  0  0  0
M  END
> <OPENEYE_ISO_SMILES>
c1cc(cc(c1)O)C(=O)NCC(=O)O

> <OPENEYE_INCHI>
InChI=1S/C9H9NO4/c11-7-3-1-2-6(4-7)9(14)10-5-8(12)13/h1-4,11H,5H2,(H,10,14)(H,12,13)

> <OPENEYE_INCHIKEY>
XDOFWFNMYJRHEW-UHFFFAOYSA-N

> <FORMULA>
C9H9NO4

$$$$
