ACE
  -OEChem-02242320013D

  7  6  0     0  0  0  0  0  0999 V2000
   -0.1330    0.4530    0.0000 C   0  0  0  0  0  0  0  0  0  0  0  0
   -1.1130   -0.2520    0.0000 O   0  0  0  0  0  0  0  0  0  0  0  0
    1.2410   -0.1670    0.0000 C   0  0  0  0  0  0  0  0  0  0  0  0
   -0.2400    1.5280    0.0000 H   0  0  0  0  0  0  0  0  0  0  0  0
    1.3600   -0.7850    0.8900 H   0  0  0  0  0  0  0  0  0  0  0  0
    1.3600   -0.7850   -0.8900 H   0  0  0  0  0  0  0  0  0  0  0  0
    1.9950    0.6200    0.0000 H   0  0  0  0  0  0  0  0  0  0  0  0
  1  2  2  0  0  0  0
  1  3  1  0  0  0  0
  1  4  1  0  0  0  0
  3  5  1  0  0  0  0
  3  6  1  0  0  0  0
  3  7  1  0  0  0  0
M  END
> <OPENEYE_ISO_SMILES>
CC=O

> <OPENEYE_INCHI>
InChI=1S/C2H4O/c1-2-3/h2H,1H3

> <OPENEYE_INCHIKEY>
IKHGUXGNUITLKF-UHFFFAOYSA-N

> <FORMULA>
C2H4O

$$$$
