HSV
  -OEChem-02242320023D

 20 20  0     1  0  0  0  0  0999 V2000
   -1.3680    1.1950   -0.6390 N   0  0  0  0  0  0  0  0  0  0  0  0
   -1.3960   -0.2470   -0.3600 C   0  0  1  0  0  0  0  0  0  0  0  0
   -0.4360   -0.5630    0.7880 C   0  0  0  0  0  0  0  0  0  0  0  0
    0.9780   -0.2680    0.3560 C   0  0  0  0  0  0  0  0  0  0  0  0
    1.6480    0.8720    0.5780 N   0  3  0  0  0  0  0  0  0  0  0  0
    1.7910   -1.1060   -0.3160 C   0  0  0  0  0  0  0  0  0  0  0  0
    2.8440    0.7750    0.0650 C   0  0  0  0  0  0  0  0  0  0  0  0
    2.9760   -0.4450   -0.4980 N   0  0  0  0  0  0  0  0  0  0  0  0
   -2.7940   -0.6560    0.0270 C   0  0  0  0  0  0  0  0  0  0  0  0
   -3.6750    0.1680    0.0670 O   0  0  0  0  0  0  0  0  0  0  0  0
   -1.9450    1.4210   -1.4350 H   0  0  0  0  0  0  0  0  0  0  0  0
   -1.6480    1.7260    0.1730 H   0  0  0  0  0  0  0  0  0  0  0  0
   -1.0910   -0.7950   -1.2510 H   0  0  0  0  0  0  0  0  0  0  0  0
   -0.6870    0.0520    1.6520 H   0  0  0  0  0  0  0  0  0  0  0  0
   -0.5220   -1.6170    1.0540 H   0  0  0  0  0  0  0  0  0  0  0  0
    1.2990    1.6460    1.0460 H   0  0  0  0  0  0  0  0  0  0  0  0
    1.5540   -2.1060   -0.6470 H   0  0  0  0  0  0  0  0  0  0  0  0
    3.6050    1.5410    0.0930 H   0  0  0  0  0  0  0  0  0  0  0  0
    3.7630   -0.7890   -0.9490 H   0  0  0  0  0  0  0  0  0  0  0  0
   -3.0070   -1.6870    0.2690 H   0  0  0  0  0  0  0  0  0  0  0  0
  6  8  1  0  0  0  0
  7  8  1  0  0  0  0
  4  6  2  0  0  0  0
  9 10  2  0  0  0  0
  5  7  2  0  0  0  0
  4  5  1  0  0  0  0
  3  4  1  0  0  0  0
  2  9  1  0  0  0  0
  2  3  1  0  0  0  0
  1  2  1  0  0  0  0
  1 11  1  0  0  0  0
  1 12  1  0  0  0  0
  2 13  1  0  0  0  0
  3 14  1  0  0  0  0
  3 15  1  0  0  0  0
  5 16  1  0  0  0  0
  6 17  1  0  0  0  0
  7 18  1  0  0  0  0
  8 19  1  0  0  0  0
  9 20  1  0  0  0  0
M  CHG  1   5   1
M  END
> <OPENEYE_ISO_SMILES>
c1c([nH+]c[nH]1)C[C@@H](C=O)N

> <OPENEYE_INCHI>
InChI=1S/C6H9N3O/c7-5(3-10)1-6-2-8-4-9-6/h2-5H,1,7H2,(H,8,9)/p+1/t5-/m0/s1

> <OPENEYE_INCHIKEY>
VYOIELONWKIZJS-YFKPBYRVSA-O

> <FORMULA>
C6H10N3O+

$$$$
