0HN
  -OEChem-02242320003D

 18 19  0     0  0  0  0  0  0999 V2000
    2.9620   -1.4400   -0.0080 O   0  0  0  0  0  0  0  0  0  0  0  0
    2.6190   -0.2740   -0.0180 C   0  0  0  0  0  0  0  0  0  0  0  0
    3.5470    0.7010   -0.0590 O   0  0  0  0  0  0  0  0  0  0  0  0
    1.1860    0.0730    0.0090 C   0  0  0  0  0  0  0  0  0  0  0  0
    0.2210   -0.9370    0.0520 C   0  0  0  0  0  0  0  0  0  0  0  0
   -1.1200   -0.6080    0.0770 C   0  0  0  0  0  0  0  0  0  0  0  0
   -2.2410   -1.3870    0.1180 O   0  0  0  0  0  0  0  0  0  0  0  0
   -3.3220   -0.5250   -0.2860 C   0  0  0  0  0  0  0  0  0  0  0  0
   -2.8720    0.7890    0.0910 O   0  0  0  0  0  0  0  0  0  0  0  0
   -1.5100    0.7320    0.0600 C   0  0  0  0  0  0  0  0  0  0  0  0
   -0.5500    1.7350    0.0180 C   0  0  0  0  0  0  0  0  0  0  0  0
    0.7890    1.4130   -0.0030 C   0  0  0  0  0  0  0  0  0  0  0  0
    4.4740    0.4240   -0.0800 H   0  0  0  0  0  0  0  0  0  0  0  0
    0.5230   -1.9740    0.0640 H   0  0  0  0  0  0  0  0  0  0  0  0
   -3.4750   -0.5830   -1.3640 H   0  0  0  0  0  0  0  0  0  0  0  0
   -0.8550    2.7710    0.0050 H   0  0  0  0  0  0  0  0  0  0  0  0
    1.5320    2.1960   -0.0320 H   0  0  0  0  0  0  0  0  0  0  0  0
   -4.2370   -0.7840    0.2460 H   0  0  0  0  0  0  0  0  0  0  0  0
  1  2  2  0  0  0  0
  2  3  1  0  0  0  0
  2  4  1  0  0  0  0
  4  5  2  0  0  0  0
  5  6  1  0  0  0  0
  4 12  1  0  0  0  0
  6  7  1  0  0  0  0
  6 10  2  0  0  0  0
  7  8  1  0  0  0  0
 11 12  2  0  0  0  0
 10 11  1  0  0  0  0
  9 10  1  0  0  0  0
  8  9  1  0  0  0  0
  3 13  1  0  0  0  0
  5 14  1  0  0  0  0
  8 15  1  0  0  0  0
 11 16  1  0  0  0  0
 12 17  1  0  0  0  0
  8 18  1  0  0  0  0
M  END
> <OPENEYE_ISO_SMILES>
c1cc2c(cc1C(=O)O)OCO2

> <OPENEYE_INCHI>
InChI=1S/C8H6O4/c9-8(10)5-1-2-6-7(3-5)12-4-11-6/h1-3H,4H2,(H,9,10)

> <OPENEYE_INCHIKEY>
VDVJGIYXDVPQLP-UHFFFAOYSA-N

> <FORMULA>
C8H6O4

$$$$
