BVF
  -OEChem-02242320023D

 16 16  0     0  0  0  0  0  0999 V2000
   -0.0770    1.7300   -0.0010 C   0  0  0  0  0  0  0  0  0  0  0  0
    1.1570    1.1120    0.0000 C   0  0  0  0  0  0  0  0  0  0  0  0
    1.2220   -0.2760    0.0010 C   0  0  0  0  0  0  0  0  0  0  0  0
    0.0400   -0.9920   -0.0040 C   0  0  0  0  0  0  0  0  0  0  0  0
   -1.1690   -0.3030    0.0010 C   0  0  0  0  0  0  0  0  0  0  0  0
   -1.1900    1.0210    0.0000 N   0  0  0  0  0  0  0  0  0  0  0  0
   -2.3660   -1.0110    0.0010 N   0  0  0  0  0  0  0  0  0  0  0  0
    2.5520   -0.9840    0.0010 C   0  0  0  0  0  0  0  0  0  0  0  0
   -0.1330    2.8090   -0.0010 H   0  0  0  0  0  0  0  0  0  0  0  0
    2.0620    1.7000    0.0000 H   0  0  0  0  0  0  0  0  0  0  0  0
    0.0540   -2.0720   -0.0030 H   0  0  0  0  0  0  0  0  0  0  0  0
   -3.2110   -0.5350    0.0000 H   0  0  0  0  0  0  0  0  0  0  0  0
   -2.3550   -1.9810    0.0020 H   0  0  0  0  0  0  0  0  0  0  0  0
    2.8730   -1.1540    1.0290 H   0  0  0  0  0  0  0  0  0  0  0  0
    2.4540   -1.9410   -0.5120 H   0  0  0  0  0  0  0  0  0  0  0  0
    3.2910   -0.3700   -0.5140 H   0  0  0  0  0  0  0  0  0  0  0  0
  1  2  2  0  0  0  0
  1  6  1  0  0  0  0
  1  9  1  0  0  0  0
  2  3  1  0  0  0  0
  2 10  1  0  0  0  0
  3  4  2  0  0  0  0
  3  8  1  0  0  0  0
  4  5  1  0  0  0  0
  4 11  1  0  0  0  0
  5  6  2  0  0  0  0
  5  7  1  0  0  0  0
  7 12  1  0  0  0  0
  7 13  1  0  0  0  0
  8 14  1  0  0  0  0
  8 15  1  0  0  0  0
  8 16  1  0  0  0  0
M  END
> <OPENEYE_ISO_SMILES>
Cc1ccnc(c1)N

> <OPENEYE_INCHI>
InChI=1S/C6H8N2/c1-5-2-3-8-6(7)4-5/h2-4H,1H3,(H2,7,8)

> <OPENEYE_INCHIKEY>
ORLGLBZRQYOWNA-UHFFFAOYSA-N

> <FORMULA>
C6H8N2

$$$$
