T1Y
  -OEChem-02242320043D

 34 35  0     0  0  0  0  0  0999 V2000
   -3.3220   -0.1820    0.0450 N   0  0  0  0  0  0  0  0  0  0  0  0
    2.1000    0.4310   -0.0130 C   0  0  0  0  0  0  0  0  0  0  0  0
    2.7530   -0.6960    0.4470 C   0  0  0  0  0  0  0  0  0  0  0  0
   -1.1300   -0.9530    0.7890 C   0  0  0  0  0  0  0  0  0  0  0  0
   -2.6020   -0.7770    1.1800 C   0  0  0  0  0  0  0  0  0  0  0  0
   -2.8310    1.0830   -0.5190 C   0  0  0  0  0  0  0  0  0  0  0  0
   -4.4080   -0.7880   -0.4730 C   0  0  0  0  0  0  0  0  0  0  0  0
   -0.6390    0.3120    0.2250 N   0  0  0  0  0  0  0  0  0  0  0  0
    3.8510   -1.1880   -0.2400 C   0  0  0  0  0  0  0  0  0  0  0  0
    0.8200    0.5910    2.1950 O   0  0  0  0  0  0  0  0  0  0  0  0
    4.2910   -0.5500   -1.3860 C   0  0  0  0  0  0  0  0  0  0  0  0
   -5.2090   -0.1060   -1.5520 C   0  0  0  0  0  0  0  0  0  0  0  0
    3.6360    0.5780   -1.8440 C   0  0  0  0  0  0  0  0  0  0  0  0
    2.5410    1.0680   -1.1580 C   0  0  0  0  0  0  0  0  0  0  0  0
   -1.3590    0.9070   -0.9100 C   0  0  0  0  0  0  0  0  0  0  0  0
    4.4910   -2.2900    0.2090 F   0  0  0  0  0  0  0  0  0  0  0  0
    0.5940    2.4290    0.5160 O   0  0  0  0  0  0  0  0  0  0  0  0
   -4.7410   -1.8830   -0.0700 O   0  0  0  0  0  0  0  0  0  0  0  0
    0.7000    1.0540    0.8570 S   0  0  0  0  0  0  0  0  0  0  0  0
    2.4090   -1.1930    1.3420 H   0  0  0  0  0  0  0  0  0  0  0  0
   -0.5450   -1.2110    1.6720 H   0  0  0  0  0  0  0  0  0  0  0  0
   -1.0380   -1.7450    0.0450 H   0  0  0  0  0  0  0  0  0  0  0  0
   -2.6750   -0.1190    2.0450 H   0  0  0  0  0  0  0  0  0  0  0  0
   -3.0360   -1.7480    1.4190 H   0  0  0  0  0  0  0  0  0  0  0  0
   -3.4160    1.3410   -1.4020 H   0  0  0  0  0  0  0  0  0  0  0  0
   -2.9200    1.8750    0.2250 H   0  0  0  0  0  0  0  0  0  0  0  0
    5.1470   -0.9330   -1.9230 H   0  0  0  0  0  0  0  0  0  0  0  0
   -4.7130    0.8200   -1.8420 H   0  0  0  0  0  0  0  0  0  0  0  0
   -5.2870   -0.7640   -2.4180 H   0  0  0  0  0  0  0  0  0  0  0  0
   -6.2080    0.1190   -1.1760 H   0  0  0  0  0  0  0  0  0  0  0  0
    3.9800    1.0760   -2.7390 H   0  0  0  0  0  0  0  0  0  0  0  0
    2.0290    1.9490   -1.5170 H   0  0  0  0  0  0  0  0  0  0  0  0
   -1.2860    0.2490   -1.7760 H   0  0  0  0  0  0  0  0  0  0  0  0
   -0.9250    1.8780   -1.1490 H   0  0  0  0  0  0  0  0  0  0  0  0
  9 16  1  0  0  0  0
  9 11  2  0  0  0  0
 11 13  1  0  0  0  0
 13 14  2  0  0  0  0
  2 14  1  0  0  0  0
  2  3  2  0  0  0  0
  3  9  1  0  0  0  0
  2 19  1  0  0  0  0
 10 19  2  0  0  0  0
 17 19  2  0  0  0  0
  8 19  1  0  0  0  0
  4  8  1  0  0  0  0
  4  5  1  0  0  0  0
  1  5  1  0  0  0  0
  1  6  1  0  0  0  0
  6 15  1  0  0  0  0
  8 15  1  0  0  0  0
  1  7  1  0  0  0  0
  7 18  2  0  0  0  0
  7 12  1  0  0  0  0
  3 20  1  0  0  0  0
  4 21  1  0  0  0  0
  4 22  1  0  0  0  0
  5 23  1  0  0  0  0
  5 24  1  0  0  0  0
  6 25  1  0  0  0  0
  6 26  1  0  0  0  0
 11 27  1  0  0  0  0
 12 28  1  0  0  0  0
 12 29  1  0  0  0  0
 12 30  1  0  0  0  0
 13 31  1  0  0  0  0
 14 32  1  0  0  0  0
 15 33  1  0  0  0  0
 15 34  1  0  0  0  0
M  END
> <OPENEYE_ISO_SMILES>
CC(=O)N1CCN(CC1)S(=O)(=O)c2cccc(c2)F

> <OPENEYE_INCHI>
InChI=1S/C12H15FN2O3S/c1-10(16)14-5-7-15(8-6-14)19(17,18)12-4-2-3-11(13)9-12/h2-4,9H,5-8H2,1H3

> <OPENEYE_INCHIKEY>
XHJTYTNVOUGFFA-UHFFFAOYSA-N

> <FORMULA>
C12H15FN2O3S

$$$$
