YMY
  -OEChem-02242320043D

 79 80  0     1  0  0  0  0  0999 V2000
    0.7660    0.1290    0.9980 C   0  0  2  0  0  0  0  0  0  0  0  0
   -0.1620   -0.9320    3.0610 C   0  0  0  0  0  0  0  0  0  0  0  0
   -4.0030    0.7890    0.7560 C   0  0  0  0  0  0  0  0  0  0  0  0
   -5.2090    0.5200   -0.1470 C   0  0  0  0  0  0  0  0  0  0  0  0
   -6.6410   -1.2570   -1.1630 C   0  0  0  0  0  0  0  0  0  0  0  0
    4.0570    1.5530   -1.4110 C   0  0  2  0  0  0  0  0  0  0  0  0
    4.2860    0.3580   -0.4840 C   0  0  2  0  0  0  0  0  0  0  0  0
    4.3590   -0.9250   -1.3140 C   0  0  0  0  0  0  0  0  0  0  0  0
    4.6830   -2.1070   -0.3980 C   0  0  2  0  0  0  0  0  0  0  0  0
    6.0980   -1.9520    0.2060 C   0  0  0  0  0  0  0  0  0  0  0  0
    1.9150    0.1190    0.0240 C   0  0  0  0  0  0  0  0  0  0  0  0
   -1.6450    0.4220    0.7970 C   0  0  0  0  0  0  0  0  0  0  0  0
   -5.4350   -0.9880   -0.2600 C   0  0  0  0  0  0  0  0  0  0  0  0
   -7.8840   -0.5980   -0.5620 C   0  0  0  0  0  0  0  0  0  0  0  0
    4.7590   -3.3900   -1.1960 C   0  0  0  0  0  0  0  0  0  0  0  0
    6.5940   -3.4150    0.2280 C   0  0  0  0  0  0  0  0  0  0  0  0
    0.9350   -1.0160    1.9980 C   0  0  0  0  0  0  0  0  0  0  0  0
   -0.0690   -2.1460    3.9880 C   0  0  0  0  0  0  0  0  0  0  0  0
    0.0180    0.3490    3.8790 C   0  0  0  0  0  0  0  0  0  0  0  0
   -9.0900   -0.8670   -1.4640 C   0  0  0  0  0  0  0  0  0  0  0  0
  -10.3550   -0.3160   -0.8020 C   0  0  0  0  0  0  0  0  0  0  0  0
  -11.5610   -0.5840   -1.7040 C   0  0  0  0  0  0  0  0  0  0  0  0
   -7.6580    0.9110   -0.4480 C   0  0  0  0  0  0  0  0  0  0  0  0
   -6.4520    1.1790    0.4540 C   0  0  0  0  0  0  0  0  0  0  0  0
    5.8400   -4.1000   -0.8290 N   0  0  0  0  0  0  0  0  0  0  0  0
    3.1790    0.2610    0.4700 N   0  0  0  0  0  0  0  0  0  0  0  0
   -0.4940   -0.0400    0.2700 N   0  0  0  0  0  0  0  0  0  0  0  0
    5.1260    1.6340   -2.3570 O   0  0  0  0  0  0  0  0  0  0  0  0
    3.9600   -3.7290   -2.0430 O   0  0  0  0  0  0  0  0  0  0  0  0
   -2.8020    0.2660    0.1270 O   0  0  0  0  0  0  0  0  0  0  0  0
   -1.6380    0.9790    1.8770 O   0  0  0  0  0  0  0  0  0  0  0  0
    1.7030   -0.0160   -1.1630 O   0  0  0  0  0  0  0  0  0  0  0  0
    0.7510    1.0790    1.5330 H   0  0  0  0  0  0  0  0  0  0  0  0
   -1.1380   -0.9190    2.5760 H   0  0  0  0  0  0  0  0  0  0  0  0
   -3.8950    1.8620    0.9080 H   0  0  0  0  0  0  0  0  0  0  0  0
   -4.1520    0.2980    1.7170 H   0  0  0  0  0  0  0  0  0  0  0  0
   -5.0210    0.9350   -1.1370 H   0  0  0  0  0  0  0  0  0  0  0  0
   -6.4530   -0.8420   -2.1530 H   0  0  0  0  0  0  0  0  0  0  0  0
   -6.8020   -2.3320   -1.2430 H   0  0  0  0  0  0  0  0  0  0  0  0
    4.0010    3.0780   -0.4300 S   0  0  0  0  0  0  0  0  0  0  0  0
    3.1130    1.4260   -1.9400 H   0  0  0  0  0  0  0  0  0  0  0  0
    5.2220    0.4930    0.0590 H   0  0  0  0  0  0  0  0  0  0  0  0
    3.4000   -1.0970   -1.8020 H   0  0  0  0  0  0  0  0  0  0  0  0
    5.1390   -0.8260   -2.0690 H   0  0  0  0  0  0  0  0  0  0  0  0
    3.9380   -2.1910    0.3930 H   0  0  0  0  0  0  0  0  0  0  0  0
    6.7300   -1.3360   -0.4350 H   0  0  0  0  0  0  0  0  0  0  0  0
    6.0500   -1.5400    1.2140 H   0  0  0  0  0  0  0  0  0  0  0  0
   -4.5490   -1.4580   -0.6880 H   0  0  0  0  0  0  0  0  0  0  0  0
   -5.6230   -1.4030    0.7300 H   0  0  0  0  0  0  0  0  0  0  0  0
   -8.0720   -1.0130    0.4290 H   0  0  0  0  0  0  0  0  0  0  0  0
    7.6620   -3.4550    0.0160 H   0  0  0  0  0  0  0  0  0  0  0  0
    6.3850   -3.8690    1.1970 H   0  0  0  0  0  0  0  0  0  0  0  0
    0.8610   -1.9690    1.4740 H   0  0  0  0  0  0  0  0  0  0  0  0
    1.9110   -0.9400    2.4770 H   0  0  0  0  0  0  0  0  0  0  0  0
   -0.8510   -2.0850    4.7450 H   0  0  0  0  0  0  0  0  0  0  0  0
   -0.1970   -3.0580    3.4050 H   0  0  0  0  0  0  0  0  0  0  0  0
    0.9070   -2.1590    4.4730 H   0  0  0  0  0  0  0  0  0  0  0  0
   -0.0480    1.2140    3.2190 H   0  0  0  0  0  0  0  0  0  0  0  0
   -0.7630    0.4090    4.6360 H   0  0  0  0  0  0  0  0  0  0  0  0
    0.9940    0.3360    4.3640 H   0  0  0  0  0  0  0  0  0  0  0  0
   -8.9410   -0.3760   -2.4260 H   0  0  0  0  0  0  0  0  0  0  0  0
   -9.1980   -1.9400   -1.6170 H   0  0  0  0  0  0  0  0  0  0  0  0
  -10.5050   -0.8070    0.1600 H   0  0  0  0  0  0  0  0  0  0  0  0
  -10.2480    0.7580   -0.6490 H   0  0  0  0  0  0  0  0  0  0  0  0
  -12.4620   -0.1920   -1.2330 H   0  0  0  0  0  0  0  0  0  0  0  0
  -11.4120   -0.0940   -2.6660 H   0  0  0  0  0  0  0  0  0  0  0  0
  -11.6690   -1.6580   -1.8570 H   0  0  0  0  0  0  0  0  0  0  0  0
   -7.4700    1.3250   -1.4390 H   0  0  0  0  0  0  0  0  0  0  0  0
   -8.5440    1.3800   -0.0200 H   0  0  0  0  0  0  0  0  0  0  0  0
   -6.6400    0.7640    1.4450 H   0  0  0  0  0  0  0  0  0  0  0  0
   -6.2910    2.2540    0.5350 H   0  0  0  0  0  0  0  0  0  0  0  0
    6.0900   -4.9540   -1.2140 H   0  0  0  0  0  0  0  0  0  0  0  0
    3.3550    0.2980    1.4230 H   0  0  0  0  0  0  0  0  0  0  0  0
   -0.4990   -0.4850   -0.5920 H   0  0  0  0  0  0  0  0  0  0  0  0
    5.2150    0.8510   -2.9170 H   0  0  0  0  0  0  0  0  0  0  0  0
    5.1280    3.1590    0.4310 O   0  0  0  0  0  0  0  0  0  0  0  0
    3.6190    4.1800   -1.2420 O   0  0  0  0  0  0  0  0  0  0  0  0
    2.8220    2.8800    0.5120 O   0  0  0  0  0  0  0  0  0  0  0  0
    2.6650    3.6250    1.1080 H   0  0  0  0  0  0  0  0  0  0  0  0
 15 29  2  0  0  0  0
 15 25  1  0  0  0  0
  9 15  1  0  0  0  0
 16 25  1  0  0  0  0
  8  9  1  0  0  0  0
  7  8  1  0  0  0  0
  9 10  1  0  0  0  0
  6  7  1  0  0  0  0
  6 28  1  0  0  0  0
 10 16  1  0  0  0  0
  7 26  1  0  0  0  0
 11 26  1  0  0  0  0
 12 31  2  0  0  0  0
  1 11  1  0  0  0  0
 11 32  2  0  0  0  0
 12 30  1  0  0  0  0
 12 27  1  0  0  0  0
  5 13  1  0  0  0  0
  4 13  1  0  0  0  0
  1 27  1  0  0  0  0
  1 17  1  0  0  0  0
  3  4  1  0  0  0  0
  3 30  1  0  0  0  0
  2 18  1  0  0  0  0
  5 14  1  0  0  0  0
  4 24  1  0  0  0  0
  2 17  1  0  0  0  0
  2 19  1  0  0  0  0
 14 20  1  0  0  0  0
 14 23  1  0  0  0  0
 23 24  1  0  0  0  0
 20 21  1  0  0  0  0
 21 22  1  0  0  0  0
  1 33  1  0  0  0  0
  2 34  1  0  0  0  0
  3 35  1  0  0  0  0
  3 36  1  0  0  0  0
  4 37  1  0  0  0  0
  5 38  1  0  0  0  0
  5 39  1  0  0  0  0
  6 40  1  0  0  0  0
  6 41  1  0  0  0  0
  7 42  1  0  0  0  0
  8 43  1  0  0  0  0
  8 44  1  0  0  0  0
  9 45  1  0  0  0  0
 10 46  1  0  0  0  0
 10 47  1  0  0  0  0
 13 48  1  0  0  0  0
 13 49  1  0  0  0  0
 14 50  1  0  0  0  0
 16 51  1  0  0  0  0
 16 52  1  0  0  0  0
 17 53  1  0  0  0  0
 17 54  1  0  0  0  0
 18 55  1  0  0  0  0
 18 56  1  0  0  0  0
 18 57  1  0  0  0  0
 19 58  1  0  0  0  0
 19 59  1  0  0  0  0
 19 60  1  0  0  0  0
 20 61  1  0  0  0  0
 20 62  1  0  0  0  0
 21 63  1  0  0  0  0
 21 64  1  0  0  0  0
 22 65  1  0  0  0  0
 22 66  1  0  0  0  0
 22 67  1  0  0  0  0
 23 68  1  0  0  0  0
 23 69  1  0  0  0  0
 24 70  1  0  0  0  0
 24 71  1  0  0  0  0
 25 72  1  0  0  0  0
 26 73  1  0  0  0  0
 27 74  1  0  0  0  0
 28 75  1  0  0  0  0
 40 76  2  0  0  0  0
 40 77  2  0  0  0  0
 40 78  1  0  0  0  0
 78 79  1  0  0  0  0
M  END
> <OPENEYE_ISO_SMILES>
CCCC1CCC(CC1)COC(=O)N[C@@H](CC(C)C)C(=O)N[C@@H](C[C@@H]2CCNC2=O)[C@H](O)S(=O)(=O)O

> <OPENEYE_INCHI>
InChI=1S/C24H43N3O8S/c1-4-5-16-6-8-17(9-7-16)14-35-24(31)27-19(12-15(2)3)22(29)26-20(23(30)36(32,33)34)13-18-10-11-25-21(18)28/h15-20,23,30H,4-14H2,1-3H3,(H,25,28)(H,26,29)(H,27,31)(H,32,33,34)/t16-,17-,18-,19-,20-,23+/m0/s1

> <OPENEYE_INCHIKEY>
ZJKUZJJPWZXFHP-LLQGSFPOSA-N

> <FORMULA>
C24H43N3O8S

$$$$
