YN1
  -OEChem-02242320043D

 79 80  0     1  0  0  0  0  0999 V2000
    0.4550    0.1790   -0.5400 C   0  0  2  0  0  0  0  0  0  0  0  0
    4.2230    1.0910    1.8040 C   0  0  1  0  0  0  0  0  0  0  0  0
    3.8840   -0.2310    1.1130 C   0  0  2  0  0  0  0  0  0  0  0  0
    5.1330   -0.7800    0.4210 C   0  0  0  0  0  0  0  0  0  0  0  0
    4.8300   -2.1650   -0.1540 C   0  0  1  0  0  0  0  0  0  0  0  0
    6.0510   -2.7300   -0.8440 C   0  0  0  0  0  0  0  0  0  0  0  0
    5.1820   -4.4630    0.4350 C   0  0  0  0  0  0  0  0  0  0  0  0
    4.5380   -3.1710    0.9840 C   0  0  0  0  0  0  0  0  0  0  0  0
    1.5360   -0.0520    0.4840 C   0  0  0  0  0  0  0  0  0  0  0  0
    0.6180    1.5740   -1.1470 C   0  0  0  0  0  0  0  0  0  0  0  0
   -0.4000    1.7620   -2.2730 C   0  0  0  0  0  0  0  0  0  0  0  0
   -0.3230    3.1980   -2.7960 C   0  0  0  0  0  0  0  0  0  0  0  0
   -0.0900    0.7870   -3.4100 C   0  0  0  0  0  0  0  0  0  0  0  0
   -1.9410   -0.2560   -0.6260 C   0  0  0  0  0  0  0  0  0  0  0  0
   -4.2690   -0.7120   -0.8820 C   0  0  0  0  0  0  0  0  0  0  0  0
   -5.5450   -0.7700   -0.0390 C   0  0  0  0  0  0  0  0  0  0  0  0
   -5.8710    0.6290    0.4890 C   0  0  0  0  0  0  0  0  0  0  0  0
   -7.1470    0.5710    1.3310 C   0  0  0  0  0  0  0  0  0  0  0  0
   -8.3060    0.0700    0.4670 C   0  0  0  0  0  0  0  0  0  0  0  0
   -9.5820    0.0120    1.3090 C   0  0  0  0  0  0  0  0  0  0  0  0
  -10.7650   -0.3690    0.4170 C   0  0  0  0  0  0  0  0  0  0  0  0
  -12.0410   -0.4260    1.2590 C   0  0  0  0  0  0  0  0  0  0  0  0
   -7.9800   -1.3290   -0.0610 C   0  0  0  0  0  0  0  0  0  0  0  0
   -6.7040   -1.2710   -0.9030 C   0  0  0  0  0  0  0  0  0  0  0  0
    6.2280   -4.0160   -0.4930 N   0  0  0  0  0  0  0  0  0  0  0  0
    2.8330   -0.0060    0.1180 N   0  0  0  0  0  0  0  0  0  0  0  0
   -0.8570    0.0760    0.1030 N   0  0  0  0  0  0  0  0  0  0  0  0
    5.3260    0.8960    2.6910 O   0  0  0  0  0  0  0  0  0  0  0  0
    6.7670   -2.1140   -1.6050 O   0  0  0  0  0  0  0  0  0  0  0  0
   -3.1470   -0.3500   -0.0350 O   0  0  0  0  0  0  0  0  0  0  0  0
   -1.8290   -0.4700   -1.8170 O   0  0  0  0  0  0  0  0  0  0  0  0
    1.2400   -0.2810    1.6380 O   0  0  0  0  0  0  0  0  0  0  0  0
    0.5340   -0.5710   -1.3270 H   0  0  0  0  0  0  0  0  0  0  0  0
    4.6640    2.3310    0.5550 S   0  0  0  0  0  0  0  0  0  0  0  0
    3.3590    1.4380    2.3710 H   0  0  0  0  0  0  0  0  0  0  0  0
    3.5340   -0.9490    1.8550 H   0  0  0  0  0  0  0  0  0  0  0  0
    5.4260   -0.1080   -0.3850 H   0  0  0  0  0  0  0  0  0  0  0  0
    5.9450   -0.8560    1.1440 H   0  0  0  0  0  0  0  0  0  0  0  0
    3.9880   -2.1150   -0.8440 H   0  0  0  0  0  0  0  0  0  0  0  0
    5.6220   -5.0410    1.2480 H   0  0  0  0  0  0  0  0  0  0  0  0
    4.4380   -5.0610   -0.0930 H   0  0  0  0  0  0  0  0  0  0  0  0
    5.0170   -2.8600    1.9120 H   0  0  0  0  0  0  0  0  0  0  0  0
    3.4650   -3.3000    1.1250 H   0  0  0  0  0  0  0  0  0  0  0  0
    0.4510    2.3270   -0.3770 H   0  0  0  0  0  0  0  0  0  0  0  0
    1.6260    1.6810   -1.5470 H   0  0  0  0  0  0  0  0  0  0  0  0
   -1.4030    1.5680   -1.8920 H   0  0  0  0  0  0  0  0  0  0  0  0
    0.6800    3.3920   -3.1770 H   0  0  0  0  0  0  0  0  0  0  0  0
   -1.0480    3.3320   -3.5980 H   0  0  0  0  0  0  0  0  0  0  0  0
   -0.5440    3.8920   -1.9860 H   0  0  0  0  0  0  0  0  0  0  0  0
    0.9130    0.9810   -3.7910 H   0  0  0  0  0  0  0  0  0  0  0  0
   -0.1450   -0.2350   -3.0380 H   0  0  0  0  0  0  0  0  0  0  0  0
   -0.8150    0.9220   -4.2130 H   0  0  0  0  0  0  0  0  0  0  0  0
   -4.0860   -1.6880   -1.3310 H   0  0  0  0  0  0  0  0  0  0  0  0
   -4.3860    0.0330   -1.6680 H   0  0  0  0  0  0  0  0  0  0  0  0
   -5.3970   -1.4490    0.7990 H   0  0  0  0  0  0  0  0  0  0  0  0
   -5.0450    0.9860    1.1050 H   0  0  0  0  0  0  0  0  0  0  0  0
   -6.0200    1.3090   -0.3500 H   0  0  0  0  0  0  0  0  0  0  0  0
   -6.9990   -0.1090    2.1700 H   0  0  0  0  0  0  0  0  0  0  0  0
   -7.3790    1.5670    1.7080 H   0  0  0  0  0  0  0  0  0  0  0  0
   -8.4550    0.7500   -0.3720 H   0  0  0  0  0  0  0  0  0  0  0  0
   -9.4650   -0.7330    2.0960 H   0  0  0  0  0  0  0  0  0  0  0  0
   -9.7660    0.9880    1.7580 H   0  0  0  0  0  0  0  0  0  0  0  0
  -10.8820    0.3770   -0.3690 H   0  0  0  0  0  0  0  0  0  0  0  0
  -10.5820   -1.3450   -0.0320 H   0  0  0  0  0  0  0  0  0  0  0  0
  -11.9240   -1.1720    2.0460 H   0  0  0  0  0  0  0  0  0  0  0  0
  -12.2250    0.5500    1.7080 H   0  0  0  0  0  0  0  0  0  0  0  0
  -12.8840   -0.6980    0.6240 H   0  0  0  0  0  0  0  0  0  0  0  0
   -7.8320   -2.0090    0.7780 H   0  0  0  0  0  0  0  0  0  0  0  0
   -8.8060   -1.6860   -0.6770 H   0  0  0  0  0  0  0  0  0  0  0  0
   -6.8530   -0.5910   -1.7420 H   0  0  0  0  0  0  0  0  0  0  0  0
   -6.4720   -2.2670   -1.2800 H   0  0  0  0  0  0  0  0  0  0  0  0
    6.9530   -4.5760   -0.8120 H   0  0  0  0  0  0  0  0  0  0  0  0
    3.0700    0.1770   -0.8050 H   0  0  0  0  0  0  0  0  0  0  0  0
   -0.9460    0.2470    1.0540 H   0  0  0  0  0  0  0  0  0  0  0  0
    6.1320    0.5870    2.2550 H   0  0  0  0  0  0  0  0  0  0  0  0
    5.8360    1.9380   -0.1460 O   0  0  0  0  0  0  0  0  0  0  0  0
    3.5060    2.7690   -0.1420 O   0  0  0  0  0  0  0  0  0  0  0  0
    5.0980    3.5460    1.3620 O   0  0  0  0  0  0  0  0  0  0  0  0
    5.3670    4.3010    0.8220 H   0  0  0  0  0  0  0  0  0  0  0  0
  6 29  2  0  0  0  0
  6 25  1  0  0  0  0
  5  6  1  0  0  0  0
  7 25  1  0  0  0  0
  4  5  1  0  0  0  0
  3  4  1  0  0  0  0
  5  8  1  0  0  0  0
  2 28  1  0  0  0  0
  2  3  1  0  0  0  0
  7  8  1  0  0  0  0
  3 26  1  0  0  0  0
  9 26  1  0  0  0  0
 14 31  2  0  0  0  0
  1  9  1  0  0  0  0
  9 32  2  0  0  0  0
 11 12  1  0  0  0  0
 17 18  1  0  0  0  0
 16 17  1  0  0  0  0
 14 27  1  0  0  0  0
 14 30  1  0  0  0  0
  1 27  1  0  0  0  0
  1 10  1  0  0  0  0
 15 16  1  0  0  0  0
 15 30  1  0  0  0  0
 18 19  1  0  0  0  0
 16 24  1  0  0  0  0
 10 11  1  0  0  0  0
 11 13  1  0  0  0  0
 19 20  1  0  0  0  0
 19 23  1  0  0  0  0
 20 21  1  0  0  0  0
 21 22  1  0  0  0  0
 23 24  1  0  0  0  0
  1 33  1  0  0  0  0
  2 34  1  0  0  0  0
  2 35  1  0  0  0  0
  3 36  1  0  0  0  0
  4 37  1  0  0  0  0
  4 38  1  0  0  0  0
  5 39  1  0  0  0  0
  7 40  1  0  0  0  0
  7 41  1  0  0  0  0
  8 42  1  0  0  0  0
  8 43  1  0  0  0  0
 10 44  1  0  0  0  0
 10 45  1  0  0  0  0
 11 46  1  0  0  0  0
 12 47  1  0  0  0  0
 12 48  1  0  0  0  0
 12 49  1  0  0  0  0
 13 50  1  0  0  0  0
 13 51  1  0  0  0  0
 13 52  1  0  0  0  0
 15 53  1  0  0  0  0
 15 54  1  0  0  0  0
 16 55  1  0  0  0  0
 17 56  1  0  0  0  0
 17 57  1  0  0  0  0
 18 58  1  0  0  0  0
 18 59  1  0  0  0  0
 19 60  1  0  0  0  0
 20 61  1  0  0  0  0
 20 62  1  0  0  0  0
 21 63  1  0  0  0  0
 21 64  1  0  0  0  0
 22 65  1  0  0  0  0
 22 66  1  0  0  0  0
 22 67  1  0  0  0  0
 23 68  1  0  0  0  0
 23 69  1  0  0  0  0
 24 70  1  0  0  0  0
 24 71  1  0  0  0  0
 25 72  1  0  0  0  0
 26 73  1  0  0  0  0
 27 74  1  0  0  0  0
 28 75  1  0  0  0  0
 34 76  2  0  0  0  0
 34 77  2  0  0  0  0
 34 78  1  0  0  0  0
 78 79  1  0  0  0  0
M  END
> <OPENEYE_ISO_SMILES>
CCCC1CCC(CC1)COC(=O)N[C@@H](CC(C)C)C(=O)N[C@@H](C[C@@H]2CCNC2=O)[C@@H](O)S(=O)(=O)O

> <OPENEYE_INCHI>
InChI=1S/C24H43N3O8S/c1-4-5-16-6-8-17(9-7-16)14-35-24(31)27-19(12-15(2)3)22(29)26-20(23(30)36(32,33)34)13-18-10-11-25-21(18)28/h15-20,23,30H,4-14H2,1-3H3,(H,25,28)(H,26,29)(H,27,31)(H,32,33,34)/t16-,17-,18-,19-,20-,23-/m0/s1

> <OPENEYE_INCHIKEY>
ZJKUZJJPWZXFHP-LZVKGNEYSA-N

> <FORMULA>
C24H43N3O8S

$$$$
