@<TRIPOS>MOLECULE
/home/pku/3cl/gett_pdb/5SOZ/5SOZ_mol2/ligand/5SOZ_WXY.pdb
 39 42 0 0 0
SMALL
GASTEIGER

@<TRIPOS>ATOM
      1  C10      -45.0820  -33.8500   -0.7310 C.3   201  WXY201     -0.0529
      2  C13      -45.1870  -30.1350    4.4780 C.3   201  WXY201      0.2042
      3  C15      -44.2620  -29.3200    6.3730 C.2   201  WXY201      0.1038
      4  C17      -46.4190  -29.0620    6.1880 C.ar  201  WXY201      0.1278
      5  C20      -47.8380  -29.7160    4.5290 C.ar  201  WXY201     -0.0364
      6  C21      -46.4360  -29.7240    4.9260 C.ar  201  WXY201      0.0331
      7  C02      -45.0960  -30.9220    3.1950 C.2   201  WXY201      0.2516
      8  C04      -46.2070  -29.1510    1.6890 C.3   201  WXY201      0.0188
      9  C05      -46.5370  -29.1720    0.2090 C.3   201  WXY201     -0.0155
     10  C06      -46.3960  -30.4030   -0.2570 C.3   201  WXY201     -0.0098
     11  C07      -45.5880  -31.2600    0.7320 C.3   201  WXY201      0.0409
     12  C08      -46.3830  -32.5530    1.0070 C.3   201  WXY201     -0.0311
     13  C09      -46.4620  -33.5480   -0.1580 C.3   201  WXY201     -0.0511
     14  C11      -44.4200  -32.5470   -1.1460 C.3   201  WXY201     -0.0511
     15  C12      -44.2880  -31.5830    0.0230 C.3   201  WXY201     -0.0311
     16  C19      -48.5020  -29.0660    5.5280 C.ar  201  WXY201      0.0037
     17  N03      -45.6200  -30.4570    1.9440 N.am  201  WXY201     -0.2928
     18  N14      -44.1130  -29.9530    5.2250 N.2   201  WXY201     -0.2505
     19  N16      -45.3590  -28.8510    6.9150 N.pl3 201  WXY201     -0.1860
     20  N18      -47.6430  -28.7720    6.3660 N.ar  201  WXY201     -0.3479
     21  O01      -44.6370  -32.0150    3.2820 O.2   201  WXY201     -0.2724
     22 H101      -44.5380  -34.2900   -0.0540 H     201  WXY201      0.0265
     23 H102      -45.1700  -34.4320   -1.5040 H     201  WXY201      0.0265
     24 H151      -43.4920  -29.1710    6.8610 H     201  WXY201      0.1015
     25 H201      -48.1930  -30.0470    3.7330 H     201  WXY201      0.0637
     26 H042      -47.0170  -29.0140    2.1980 H     201  WXY201      0.0468
     27 H041      -45.5570  -28.4450    1.8990 H     201  WXY201      0.0468
     28 H051      -46.7500  -28.4180   -0.2990 H     201  WXY201      0.0323
     29 H061      -46.7820  -30.7210   -1.0410 H     201  WXY201      0.0328
     30 H081      -45.9770  -33.0120    1.7580 H     201  WXY201      0.0286
     31 H082      -47.2870  -32.3030    1.2540 H     201  WXY201      0.0286
     32 H091      -47.0130  -33.1720   -0.8600 H     201  WXY201      0.0266
     33 H092      -46.8570  -34.3740    0.1580 H     201  WXY201      0.0266
     34 H112      -43.5370  -32.7400   -1.4900 H     201  WXY201      0.0266
     35 H111      -44.9560  -32.1350   -1.8410 H     201  WXY201      0.0266
     36 H121      -43.6840  -31.9690    0.6760 H     201  WXY201      0.0286
     37 H122      -43.9140  -30.7530   -0.3000 H     201  WXY201      0.0286
     38 H191      -49.4090  -28.9030    5.5720 H     201  WXY201      0.0807
     39 H181      -47.8850  -28.3480    7.1070 H     201  WXY201      0.1666
@<TRIPOS>BOND
     1    35    14    1
     2    23     1    1
     3    34    14    1
     4    14     1    1
     5    14    15    1
     6    29    10    1
     7    32    13    1
     8     1    13    1
     9     1    22    1
    10    37    15    1
    11    28     9    1
    12    10     9    1
    13    10    11    1
    14    13    33    1
    15    13    12    1
    16    15    36    1
    17    15    11    1
    18     9     8    1
    19    11    12    1
    20    11    17    1
    21    12    31    1
    22    12    30    1
    23     8    27    1
    24     8    17    1
    25     8    26    1
    26    17     7   am
    27     7    21    2
    28     7     2    1
    29    25     5    1
    30     2     6    1
    31     2    18    1
    32     5     6   ar
    33     5    16   ar
    34     6     4   ar
    35    18     3    2
    36    16    38    1
    37    16    20   ar
    38     4    20   ar
    39     4    19    1
    40    20    39    1
    41     3    24    1
    42     3    19    1
