5YJ
  -OEChem-02242320013D

 41 43  0     0  0  0  0  0  0999 V2000
   -3.9880    0.5410   -0.0070 C   0  0  0  0  0  0  0  0  0  0  0  0
    2.2000    0.1210    0.5620 C   0  0  0  0  0  0  0  0  0  0  0  0
    2.9770    1.1270    0.0020 C   0  0  0  0  0  0  0  0  0  0  0  0
    4.2650    0.8520   -0.4160 C   0  0  0  0  0  0  0  0  0  0  0  0
    4.7810   -0.4250   -0.2780 C   0  0  0  0  0  0  0  0  0  0  0  0
    4.0090   -1.4290    0.2790 C   0  0  0  0  0  0  0  0  0  0  0  0
    2.7200   -1.1600    0.7000 C   0  0  0  0  0  0  0  0  0  0  0  0
   -4.9910   -0.7960   -1.6890 C   0  0  0  0  0  0  0  0  0  0  0  0
   -2.9660    1.5410    0.3860 C   0  0  0  0  0  0  0  0  0  0  0  0
   -5.8500   -0.9390    0.4810 C   0  0  0  0  0  0  0  0  0  0  0  0
   -4.8520    0.0450    0.9160 C   0  0  0  0  0  0  0  0  0  0  0  0
    6.1860   -0.7210   -0.7340 C   0  0  0  0  0  0  0  0  0  0  0  0
   -1.4500   -0.2940    0.9750 C   0  0  0  0  0  0  0  0  0  0  0  0
   -0.0670   -0.5050    0.3500 C   0  0  0  0  0  0  0  0  0  0  0  0
    0.5550    1.8050    0.7510 C   0  0  0  0  0  0  0  0  0  0  0  0
   -0.8060    2.1110    1.3980 C   0  0  0  0  0  0  0  0  0  0  0  0
   -4.0730    0.1090   -1.3130 N   0  0  0  0  0  0  0  0  0  0  0  0
   -5.8660   -1.3210   -0.8130 N   0  0  0  0  0  0  0  0  0  0  0  0
   -1.7880    1.1360    0.8990 N   0  0  0  0  0  0  0  0  0  0  0  0
    0.9000    0.3970    0.9900 N   0  0  0  0  0  0  0  0  0  0  0  0
   -5.0330   -1.1500   -2.8510 O   0  0  0  0  0  0  0  0  0  0  0  0
   -6.6440   -1.4090    1.2750 O   0  0  0  0  0  0  0  0  0  0  0  0
   -3.1910    2.7270    0.2440 O   0  0  0  0  0  0  0  0  0  0  0  0
    4.6610   -3.0300    0.4500 Cl  0  0  0  0  0  0  0  0  0  0  0  0
    5.2370    2.1090   -1.1160 Cl  0  0  0  0  0  0  0  0  0  0  0  0
    2.5740    2.1230   -0.1060 H   0  0  0  0  0  0  0  0  0  0  0  0
    2.1190   -1.9440    1.1350 H   0  0  0  0  0  0  0  0  0  0  0  0
   -4.8060    0.3670    1.9460 H   0  0  0  0  0  0  0  0  0  0  0  0
    6.8800   -0.5480    0.0880 H   0  0  0  0  0  0  0  0  0  0  0  0
    6.2530   -1.7620   -1.0530 H   0  0  0  0  0  0  0  0  0  0  0  0
    6.4430   -0.0690   -1.5690 H   0  0  0  0  0  0  0  0  0  0  0  0
   -2.1920   -0.8750    0.4280 H   0  0  0  0  0  0  0  0  0  0  0  0
   -1.4320   -0.6100    2.0180 H   0  0  0  0  0  0  0  0  0  0  0  0
    0.2460   -1.5380    0.4990 H   0  0  0  0  0  0  0  0  0  0  0  0
   -0.1140   -0.2890   -0.7170 H   0  0  0  0  0  0  0  0  0  0  0  0
    0.4980    1.9890   -0.3220 H   0  0  0  0  0  0  0  0  0  0  0  0
    1.3190    2.4460    1.1910 H   0  0  0  0  0  0  0  0  0  0  0  0
   -0.7240    2.0280    2.4810 H   0  0  0  0  0  0  0  0  0  0  0  0
   -1.1210    3.1190    1.1280 H   0  0  0  0  0  0  0  0  0  0  0  0
   -3.4580    0.4660   -1.9730 H   0  0  0  0  0  0  0  0  0  0  0  0
   -6.5200   -1.9710   -1.1160 H   0  0  0  0  0  0  0  0  0  0  0  0
 10 22  2  0  0  0  0
 10 11  1  0  0  0  0
 10 18  1  0  0  0  0
  1 11  2  0  0  0  0
  8 18  1  0  0  0  0
  1 17  1  0  0  0  0
  1  9  1  0  0  0  0
  8 17  1  0  0  0  0
  8 21  2  0  0  0  0
  4 25  1  0  0  0  0
  9 23  2  0  0  0  0
  9 19  1  0  0  0  0
 15 16  1  0  0  0  0
 15 20  1  0  0  0  0
  3  4  2  0  0  0  0
  2  3  1  0  0  0  0
  4  5  1  0  0  0  0
 16 19  1  0  0  0  0
 13 19  1  0  0  0  0
 14 20  1  0  0  0  0
  2 20  1  0  0  0  0
 13 14  1  0  0  0  0
  2  7  2  0  0  0  0
  5 12  1  0  0  0  0
  5  6  2  0  0  0  0
  6  7  1  0  0  0  0
  6 24  1  0  0  0  0
  3 26  1  0  0  0  0
  7 27  1  0  0  0  0
 11 28  1  0  0  0  0
 12 29  1  0  0  0  0
 12 30  1  0  0  0  0
 12 31  1  0  0  0  0
 13 32  1  0  0  0  0
 13 33  1  0  0  0  0
 14 34  1  0  0  0  0
 14 35  1  0  0  0  0
 15 36  1  0  0  0  0
 15 37  1  0  0  0  0
 16 38  1  0  0  0  0
 16 39  1  0  0  0  0
 17 40  1  0  0  0  0
 18 41  1  0  0  0  0
M  END
> <OPENEYE_ISO_SMILES>
Cc1c(cc(cc1Cl)N2CCN(CC2)C(=O)c3cc(=O)[nH]c(=O)[nH]3)Cl

> <OPENEYE_INCHI>
InChI=1S/C16H16Cl2N4O3/c1-9-11(17)6-10(7-12(9)18)21-2-4-22(5-3-21)15(24)13-8-14(23)20-16(25)19-13/h6-8H,2-5H2,1H3,(H2,19,20,23,25)

> <OPENEYE_INCHIKEY>
HKYIVHLRSLTYKM-UHFFFAOYSA-N

> <FORMULA>
C16H16Cl2N4O3

$$$$
