W1D
  -OEChem-02242320043D

 24 24  0     0  0  0  0  0  0999 V2000
   -0.1390    0.9110   -0.0170 C   0  0  0  0  0  0  0  0  0  0  0  0
    0.3540   -0.3890    0.0120 C   0  0  0  0  0  0  0  0  0  0  0  0
    2.5360    0.5500   -0.0140 C   0  0  0  0  0  0  0  0  0  0  0  0
    3.9800    0.1190   -0.0070 C   0  0  0  0  0  0  0  0  0  0  0  0
   -0.5210   -1.4700    0.0390 C   0  0  0  0  0  0  0  0  0  0  0  0
    4.2590   -1.0560    0.0190 O   0  0  0  0  0  0  0  0  0  0  0  0
    4.9560    1.0410   -0.0310 O   0  0  0  0  0  0  0  0  0  0  0  0
    1.6940   -0.6040    0.0140 O   0  0  0  0  0  0  0  0  0  0  0  0
   -1.4920    1.1330   -0.0200 C   0  0  0  0  0  0  0  0  0  0  0  0
   -1.8760   -1.2580    0.0360 C   0  0  0  0  0  0  0  0  0  0  0  0
   -2.3780    0.0490    0.0010 C   0  0  0  0  0  0  0  0  0  0  0  0
   -3.8280    0.2810   -0.0010 C   0  0  0  0  0  0  0  0  0  0  0  0
   -4.2610    1.4110    0.0800 O   0  0  0  0  0  0  0  0  0  0  0  0
   -4.7780   -0.8840   -0.1050 C   0  0  0  0  0  0  0  0  0  0  0  0
    0.5440    1.7470   -0.0340 H   0  0  0  0  0  0  0  0  0  0  0  0
    2.3370    1.1670    0.8620 H   0  0  0  0  0  0  0  0  0  0  0  0
    2.3330    1.1260   -0.9170 H   0  0  0  0  0  0  0  0  0  0  0  0
   -0.1330   -2.4770    0.0620 H   0  0  0  0  0  0  0  0  0  0  0  0
    5.8660    0.7160   -0.0250 H   0  0  0  0  0  0  0  0  0  0  0  0
   -1.8740    2.1440   -0.0380 H   0  0  0  0  0  0  0  0  0  0  0  0
   -2.5540   -2.0980    0.0570 H   0  0  0  0  0  0  0  0  0  0  0  0
   -4.2130   -1.8160   -0.0780 H   0  0  0  0  0  0  0  0  0  0  0  0
   -5.4770   -0.8590    0.7310 H   0  0  0  0  0  0  0  0  0  0  0  0
   -5.3300   -0.8210   -1.0420 H   0  0  0  0  0  0  0  0  0  0  0  0
  3  4  1  0  0  0  0
  3  8  1  0  0  0  0
  4  6  2  0  0  0  0
  4  7  1  0  0  0  0
  2  8  1  0  0  0  0
  2  5  2  0  0  0  0
  1  2  1  0  0  0  0
  5 10  1  0  0  0  0
  1  9  2  0  0  0  0
 10 11  2  0  0  0  0
  9 11  1  0  0  0  0
 11 12  1  0  0  0  0
 12 14  1  0  0  0  0
 12 13  2  0  0  0  0
  1 15  1  0  0  0  0
  3 16  1  0  0  0  0
  3 17  1  0  0  0  0
  5 18  1  0  0  0  0
  7 19  1  0  0  0  0
  9 20  1  0  0  0  0
 10 21  1  0  0  0  0
 14 22  1  0  0  0  0
 14 23  1  0  0  0  0
 14 24  1  0  0  0  0
M  END
> <OPENEYE_ISO_SMILES>
CC(=O)c1ccc(cc1)OCC(=O)O

> <OPENEYE_INCHI>
InChI=1S/C10H10O4/c1-7(11)8-2-4-9(5-3-8)14-6-10(12)13/h2-5H,6H2,1H3,(H,12,13)

> <OPENEYE_INCHIKEY>
KMXZEXUYXUMHEQ-UHFFFAOYSA-N

> <FORMULA>
C10H10O4

$$$$
