@<TRIPOS>MOLECULE
/home/pku/3cl/gett_pdb/7M04/7M04_mol2/ligand/7M04_YLV.pdb
 34 35 0 0 0
SMALL
GASTEIGER

@<TRIPOS>ATOM
      1  C01        9.0860   18.4630   28.2650 C.3   401  YLV401      0.2036
      2  C03        8.8230   19.8580   27.6720 C.3   401  YLV401      0.1290
      3  C04        7.7900   19.8090   26.5240 C.3   401  YLV401      0.0379
      4  C05        7.4440   21.2060   25.9380 C.3   401  YLV401      0.1036
      5  C06        6.4770   21.0270   24.6520 C.2   401  YLV401      0.2493
      6  C08        5.5210   22.5680   26.1720 C.2   401  YLV401      0.0845
      7  C09        6.7950   21.9540   26.8600 C.2   401  YLV401      0.0007
      8  C12       10.5390   21.7420   27.6290 C.2   401  YLV401      0.2614
      9  C13       11.9190   22.1840   27.1440 C.3   401  YLV401      0.1761
     10  C14       12.9470   21.9060   28.2610 C.3   401  YLV401      0.0312
     11  C15       14.3960   22.2850   27.8030 C.3   401  YLV401      0.0022
     12  C16       14.8960   21.2760   26.7030 C.3   401  YLV401      0.0001
     13  C17       15.3460   22.3340   29.0020 C.3   401  YLV401      0.0001
     14  C19       10.9320   24.0710   25.8560 C.2   401  YLV401      0.4218
     15  C21       11.3780   25.9990   24.5910 C.3   401  YLV401      0.2414
     16  C22       11.3200   27.5590   24.5890 C.ar  401  YLV401      0.0808
     17  C23       12.2580   28.2580   25.3210 C.ar  401  YLV401      0.1714
     18  C25       12.2380   29.6600   25.3410 C.ar  401  YLV401      0.1968
     19  C27       11.2690   30.3510   24.6200 C.ar  401  YLV401      0.1991
     20  C29       10.3260   29.6520   23.8790 C.ar  401  YLV401      0.1968
     21  C31       10.3480   28.2530   23.8590 C.ar  401  YLV401      0.1714
     22  F24       13.1950   27.5670   26.0200 F     401  YLV401     -0.2019
     23  F26       13.1620   30.3460   26.0670 F     401  YLV401     -0.1993
     24  F28       11.2460   31.7170   24.6380 F     401  YLV401     -0.1993
     25  F30        9.3790   30.3340   23.1660 F     401  YLV401     -0.1993
     26  F32        9.4220   27.5830   23.1270 F     401  YLV401     -0.2019
     27  N07        5.3740   21.8180   24.7970 N.am  401  YLV401     -0.1780
     28  N11       10.1150   20.3710   27.2550 N.am  401  YLV401     -0.2030
     29  N18       11.8980   23.5930   26.8310 N.am  401  YLV401     -0.1611
     30  O02        9.9370   18.6340   29.3740 O.3   401  YLV401     -0.2185
     31  O10        6.6920   20.3290   23.7100 O.2   401  YLV401     -0.2726
     32  O20       10.7140   25.4690   25.7360 O.3   401  YLV401     -0.4284
     33  O33       10.3440   23.2990   25.1630 O.2   401  YLV401     -0.2245
     34  O34        9.8390   22.4870   28.2590 O.2   401  YLV401     -0.2715
@<TRIPOS>BOND
     1    26    21    1
     2    25    20    1
     3    31     5    2
     4    21    20   ar
     5    21    16   ar
     6    20    19   ar
     7    16    15    1
     8    16    17   ar
     9    15    32    1
    10    19    24    1
    11    19    18   ar
    12     5    27   am
    13     5     4    1
    14    27     6    1
    15    33    14    2
    16    17    18   ar
    17    17    22    1
    18    18    23    1
    19    32    14    1
    20    14    29   am
    21     4     3    1
    22     4     7    1
    23     6     7    2
    24     3     2    1
    25    12    11    1
    26    29     9    1
    27     9     8    1
    28     9    10    1
    29    28     8   am
    30    28     2    1
    31     8    34    2
    32     2     1    1
    33    11    10    1
    34    11    13    1
    35     1    30    1
