W2A
  -OEChem-02242320043D

 27 27  0     1  0  0  0  0  0999 V2000
    2.0180   -1.5360    1.6610 N   0  0  0  0  0  0  0  0  0  0  0  0
    1.7190    1.8140    0.3960 C   0  0  0  0  0  0  0  0  0  0  0  0
    2.5730    1.0060   -0.5840 C   0  0  0  0  0  0  0  0  0  0  0  0
    2.0180   -0.4150   -0.6950 C   0  0  1  0  0  0  0  0  0  0  0  0
    2.0180   -1.0480    0.6350 C   0  0  0  0  0  0  0  0  0  0  0  0
    0.5850   -0.3600   -1.2340 C   0  0  1  0  0  0  0  0  0  0  0  0
   -0.0240   -1.7630   -1.2170 C   0  0  0  0  0  0  0  0  0  0  0  0
    0.2830    1.8950   -0.1310 C   0  0  0  0  0  0  0  0  0  0  0  0
   -0.2080    0.5330   -0.3780 N   0  0  3  0  0  0  0  0  0  0  0  0
   -1.6290    0.0130    0.2960 S   0  0  0  0  0  0  0  0  0  0  0  0
   -1.3710   -1.3370    0.6580 O   0  0  0  0  0  0  0  0  0  0  0  0
   -1.9280    0.9920    1.2810 O   0  0  0  0  0  0  0  0  0  0  0  0
   -2.8280    0.0890   -1.0630 C   0  0  0  0  0  0  0  0  0  0  0  0
    1.7220    1.3250    1.3700 H   0  0  0  0  0  0  0  0  0  0  0  0
    2.1280    2.8200    0.4930 H   0  0  0  0  0  0  0  0  0  0  0  0
    2.5500    1.4830   -1.5640 H   0  0  0  0  0  0  0  0  0  0  0  0
    3.6010    0.9680   -0.2230 H   0  0  0  0  0  0  0  0  0  0  0  0
    2.6400   -0.9970   -1.3750 H   0  0  0  0  0  0  0  0  0  0  0  0
    0.5940    0.0250   -2.2540 H   0  0  0  0  0  0  0  0  0  0  0  0
    0.1070   -2.2040   -0.2290 H   0  0  0  0  0  0  0  0  0  0  0  0
   -1.0880   -1.7000   -1.4480 H   0  0  0  0  0  0  0  0  0  0  0  0
    0.4730   -2.3840   -1.9610 H   0  0  0  0  0  0  0  0  0  0  0  0
   -0.3510    2.3840    0.6090 H   0  0  0  0  0  0  0  0  0  0  0  0
    0.2660    2.4660   -1.0600 H   0  0  0  0  0  0  0  0  0  0  0  0
   -2.5010   -0.5610   -1.8740 H   0  0  0  0  0  0  0  0  0  0  0  0
   -3.8040   -0.2400   -0.7050 H   0  0  0  0  0  0  0  0  0  0  0  0
   -2.9010    1.1140   -1.4260 H   0  0  0  0  0  0  0  0  0  0  0  0
  1  5  3  0  0  0  0
  4  5  1  0  0  0  0
  3  4  1  0  0  0  0
  4  6  1  0  0  0  0
  2  3  1  0  0  0  0
  6  7  1  0  0  0  0
  6  9  1  0  0  0  0
  2  8  1  0  0  0  0
  8  9  1  0  0  0  0
  9 10  1  0  0  0  0
 10 11  2  0  0  0  0
 10 12  2  0  0  0  0
 10 13  1  0  0  0  0
  2 14  1  0  0  0  0
  2 15  1  0  0  0  0
  3 16  1  0  0  0  0
  3 17  1  0  0  0  0
  4 18  1  0  0  0  0
  6 19  1  0  0  0  0
  7 20  1  0  0  0  0
  7 21  1  0  0  0  0
  7 22  1  0  0  0  0
  8 23  1  0  0  0  0
  8 24  1  0  0  0  0
 13 25  1  0  0  0  0
 13 26  1  0  0  0  0
 13 27  1  0  0  0  0
M  END
> <OPENEYE_ISO_SMILES>
C[C@@H]1[C@@H](CCCN1S(=O)(=O)C)C#N

> <OPENEYE_INCHI>
InChI=1S/C8H14N2O2S/c1-7-8(6-9)4-3-5-10(7)13(2,11)12/h7-8H,3-5H2,1-2H3/t7-,8+/m1/s1

> <OPENEYE_INCHIKEY>
FANJRWOXJRSBJO-SFYZADRCSA-N

> <FORMULA>
C8H14N2O2S

$$$$
