IRR
  -OEChem-02242320023D

 64 65  0     1  0  0  0  0  0999 V2000
   -0.6690   -2.6140    1.2860 C   0  0  0  0  0  0  0  0  0  0  0  0
   -1.8850   -0.1110    0.0960 C   0  0  0  0  0  0  0  0  0  0  0  0
   -5.3730    0.9310   -0.4980 C   0  0  1  0  0  0  0  0  0  0  0  0
   -0.7720   -4.1300    1.4610 C   0  0  0  0  0  0  0  0  0  0  0  0
   -0.3360   -1.9660    2.6310 C   0  0  0  0  0  0  0  0  0  0  0  0
   -5.9230    2.3490   -0.3340 C   0  0  0  0  0  0  0  0  0  0  0  0
   -7.9820    0.7470   -0.5150 C   0  0  0  0  0  0  0  0  0  0  0  0
   -9.1860    0.9350    0.4100 C   0  0  0  0  0  0  0  0  0  0  0  0
  -10.4640    0.5250   -0.3260 C   0  0  0  0  0  0  0  0  0  0  0  0
   -1.8310   -0.1890    1.3080 O   0  0  0  0  0  0  0  0  0  0  0  0
    2.8760   -0.7280   -0.4940 N   0  0  0  0  0  0  0  0  0  0  0  0
    4.2540   -1.5460   -2.3160 C   0  0  0  0  0  0  0  0  0  0  0  0
    4.0080   -0.4030   -1.3660 C   0  0  2  0  0  0  0  0  0  0  0  0
    5.2570   -0.1690   -0.5150 C   0  0  0  0  0  0  0  0  0  0  0  0
    5.0530    1.0700    0.3610 C   0  0  1  0  0  0  0  0  0  0  0  0
    6.2790    1.3250    1.2100 C   0  0  0  0  0  0  0  0  0  0  0  0
    5.6580    3.3900    0.3480 C   0  0  0  0  0  0  0  0  0  0  0  0
    4.9280    2.3370   -0.5160 C   0  0  0  0  0  0  0  0  0  0  0  0
    1.6180   -0.4510   -0.8900 C   0  0  0  0  0  0  0  0  0  0  0  0
    0.4550   -0.7850    0.0070 C   0  0  2  0  0  0  0  0  0  0  0  0
    0.4350   -2.2910    0.2770 C   0  0  0  0  0  0  0  0  0  0  0  0
   -4.1670    0.5380    0.3580 C   0  0  0  0  0  0  0  0  0  0  0  0
   -6.7050    1.1570    0.2200 C   0  0  1  0  0  0  0  0  0  0  0  0
    6.5980    2.6310    1.1800 N   0  0  0  0  0  0  0  0  0  0  0  0
   -0.7950   -0.3890   -0.6460 N   0  0  0  0  0  0  0  0  0  0  0  0
    3.5560   -2.5310   -2.2690 O   0  0  0  0  0  0  0  0  0  0  0  0
    6.8850    0.4760    1.8280 O   0  0  0  0  0  0  0  0  0  0  0  0
   -3.0340    0.2530   -0.5040 O   0  0  0  0  0  0  0  0  0  0  0  0
    1.4230    0.0670   -1.9690 O   0  0  0  0  0  0  0  0  0  0  0  0
   -1.6200   -2.2250    0.9210 H   0  0  0  0  0  0  0  0  0  0  0  0
   -5.4060    0.4900   -1.4940 H   0  0  0  0  0  0  0  0  0  0  0  0
    0.1780   -4.5190    1.8260 H   0  0  0  0  0  0  0  0  0  0  0  0
   -1.5590   -4.3600    2.1800 H   0  0  0  0  0  0  0  0  0  0  0  0
   -1.0100   -4.5920    0.5020 H   0  0  0  0  0  0  0  0  0  0  0  0
    0.6150   -2.3550    2.9960 H   0  0  0  0  0  0  0  0  0  0  0  0
   -0.2630   -0.8860    2.5060 H   0  0  0  0  0  0  0  0  0  0  0  0
   -1.1220   -2.1960    3.3500 H   0  0  0  0  0  0  0  0  0  0  0  0
   -5.4250    3.0020    0.3830 H   0  0  0  0  0  0  0  0  0  0  0  0
   -6.3180    2.8420   -1.2230 H   0  0  0  0  0  0  0  0  0  0  0  0
   -7.9110   -0.3000   -0.8110 H   0  0  0  0  0  0  0  0  0  0  0  0
   -8.1060    1.3670   -1.4030 H   0  0  0  0  0  0  0  0  0  0  0  0
   -9.0630    0.3150    1.2980 H   0  0  0  0  0  0  0  0  0  0  0  0
   -9.2570    1.9820    0.7050 H   0  0  0  0  0  0  0  0  0  0  0  0
  -10.3930   -0.5220   -0.6210 H   0  0  0  0  0  0  0  0  0  0  0  0
  -11.3210    0.6590    0.3330 H   0  0  0  0  0  0  0  0  0  0  0  0
  -10.5870    1.1450   -1.2130 H   0  0  0  0  0  0  0  0  0  0  0  0
    3.0330   -1.1420    0.3700 H   0  0  0  0  0  0  0  0  0  0  0  0
    5.0540   -1.4850   -3.0390 H   0  0  0  0  0  0  0  0  0  0  0  0
    3.7810    0.5000   -1.9340 H   0  0  0  0  0  0  0  0  0  0  0  0
    5.4330   -1.0370    0.1200 H   0  0  0  0  0  0  0  0  0  0  0  0
    6.1170   -0.0150   -1.1660 H   0  0  0  0  0  0  0  0  0  0  0  0
    4.1700    0.9510    0.9880 H   0  0  0  0  0  0  0  0  0  0  0  0
    6.1990    4.0910   -0.2890 H   0  0  0  0  0  0  0  0  0  0  0  0
    4.9450    3.9250    0.9750 H   0  0  0  0  0  0  0  0  0  0  0  0
    5.4310    2.2010   -1.4730 H   0  0  0  0  0  0  0  0  0  0  0  0
    3.8830    2.6090   -0.6610 H   0  0  0  0  0  0  0  0  0  0  0  0
    0.5570   -0.2490    0.9500 H   0  0  0  0  0  0  0  0  0  0  0  0
    1.3980   -2.6010    0.6810 H   0  0  0  0  0  0  0  0  0  0  0  0
    0.2430   -2.8240   -0.6550 H   0  0  0  0  0  0  0  0  0  0  0  0
   -3.9150    1.3580    1.0300 H   0  0  0  0  0  0  0  0  0  0  0  0
   -4.4100   -0.3490    0.9430 H   0  0  0  0  0  0  0  0  0  0  0  0
   -6.7220    1.0250    1.3020 H   0  0  0  0  0  0  0  0  0  0  0  0
    7.3530    3.0200    1.6490 H   0  0  0  0  0  0  0  0  0  0  0  0
   -0.8390   -0.3270   -1.6130 H   0  0  0  0  0  0  0  0  0  0  0  0
  1  5  1  0  0  0  0
  8  9  1  0  0  0  0
  1  4  1  0  0  0  0
  1 21  1  0  0  0  0
  7  8  1  0  0  0  0
 20 21  1  0  0  0  0
  7 23  1  0  0  0  0
 20 25  1  0  0  0  0
  2 25  1  0  0  0  0
 19 20  1  0  0  0  0
  3 23  1  0  0  0  0
  6 23  1  0  0  0  0
  2 28  1  0  0  0  0
 22 28  1  0  0  0  0
  2 10  2  0  0  0  0
  3 22  1  0  0  0  0
  3  6  1  0  0  0  0
 19 29  2  0  0  0  0
 11 19  1  0  0  0  0
 11 13  1  0  0  0  0
 12 13  1  0  0  0  0
 13 14  1  0  0  0  0
 12 26  2  0  0  0  0
 14 15  1  0  0  0  0
 15 18  1  0  0  0  0
 15 16  1  0  0  0  0
 17 18  1  0  0  0  0
 17 24  1  0  0  0  0
 16 27  2  0  0  0  0
 16 24  1  0  0  0  0
  1 30  1  0  0  0  0
  3 31  1  0  0  0  0
  4 32  1  0  0  0  0
  4 33  1  0  0  0  0
  4 34  1  0  0  0  0
  5 35  1  0  0  0  0
  5 36  1  0  0  0  0
  5 37  1  0  0  0  0
  6 38  1  0  0  0  0
  6 39  1  0  0  0  0
  7 40  1  0  0  0  0
  7 41  1  0  0  0  0
  8 42  1  0  0  0  0
  8 43  1  0  0  0  0
  9 44  1  0  0  0  0
  9 45  1  0  0  0  0
  9 46  1  0  0  0  0
 11 47  1  0  0  0  0
 12 48  1  0  0  0  0
 13 49  1  0  0  0  0
 14 50  1  0  0  0  0
 14 51  1  0  0  0  0
 15 52  1  0  0  0  0
 17 53  1  0  0  0  0
 17 54  1  0  0  0  0
 18 55  1  0  0  0  0
 18 56  1  0  0  0  0
 20 57  1  0  0  0  0
 21 58  1  0  0  0  0
 21 59  1  0  0  0  0
 22 60  1  0  0  0  0
 22 61  1  0  0  0  0
 23 62  1  0  0  0  0
 24 63  1  0  0  0  0
 25 64  1  0  0  0  0
M  END
> <OPENEYE_ISO_SMILES>
CCC[C@@H]1C[C@H]1COC(=O)N[C@@H](CC(C)C)C(=O)N[C@@H](C[C@@H]2CCNC2=O)C=O

> <OPENEYE_INCHI>
InChI=1S/C21H35N3O5/c1-4-5-14-9-16(14)12-29-21(28)24-18(8-13(2)3)20(27)23-17(11-25)10-15-6-7-22-19(15)26/h11,13-18H,4-10,12H2,1-3H3,(H,22,26)(H,23,27)(H,24,28)/t14-,15+,16+,17+,18+/m1/s1

> <OPENEYE_INCHIKEY>
JXXLXBAHHCCJDG-FPSMNIFISA-N

> <FORMULA>
C21H35N3O5

$$$$
