4BY
  -OEChem-02242320003D

 22 23  0     0  0  0  0  0  0999 V2000
   -1.5660   -0.0810   -0.0030 C   0  0  0  0  0  0  0  0  0  0  0  0
   -0.8740    1.1160   -0.0020 N   0  0  0  0  0  0  0  0  0  0  0  0
   -0.6770   -1.1090   -0.0040 C   0  0  0  0  0  0  0  0  0  0  0  0
    0.6250   -0.5530   -0.0020 C   0  0  0  0  0  0  0  0  0  0  0  0
    0.4740    0.8480   -0.0010 C   0  0  0  0  0  0  0  0  0  0  0  0
   -3.0280   -0.2190    0.0010 C   0  0  0  0  0  0  0  0  0  0  0  0
    1.9100   -1.1120   -0.0010 C   0  0  0  0  0  0  0  0  0  0  0  0
   -3.5340   -1.3250    0.0040 O   0  0  0  0  0  0  0  0  0  0  0  0
    1.6060    1.6580    0.0010 C   0  0  0  0  0  0  0  0  0  0  0  0
   -3.8100    0.8800    0.0000 O   0  0  0  0  0  0  0  0  0  0  0  0
    3.0040   -0.2970    0.0010 C   0  0  0  0  0  0  0  0  0  0  0  0
    2.8580    1.0850    0.0020 C   0  0  0  0  0  0  0  0  0  0  0  0
    4.3850   -0.9010    0.0020 C   0  0  0  0  0  0  0  0  0  0  0  0
   -0.9200   -2.1610   -0.0040 H   0  0  0  0  0  0  0  0  0  0  0  0
    2.0340   -2.1850   -0.0020 H   0  0  0  0  0  0  0  0  0  0  0  0
    1.5030    2.7330    0.0020 H   0  0  0  0  0  0  0  0  0  0  0  0
   -4.7660    0.7380    0.0030 H   0  0  0  0  0  0  0  0  0  0  0  0
    3.7340    1.7150    0.0040 H   0  0  0  0  0  0  0  0  0  0  0  0
    4.7190   -1.0460   -1.0260 H   0  0  0  0  0  0  0  0  0  0  0  0
    5.0740   -0.2320    0.5170 H   0  0  0  0  0  0  0  0  0  0  0  0
    4.3600   -1.8630    0.5150 H   0  0  0  0  0  0  0  0  0  0  0  0
   -1.2750    1.9990   -0.0020 H   0  0  0  0  0  0  0  0  0  0  0  0
  1  2  1  0  0  0  0
  1  6  1  0  0  0  0
  1  3  2  0  0  0  0
  2  5  1  0  0  0  0
  3  4  1  0  0  0  0
  3 14  1  0  0  0  0
  4  5  2  0  0  0  0
  4  7  1  0  0  0  0
  5  9  1  0  0  0  0
  6  8  2  0  0  0  0
  6 10  1  0  0  0  0
  7 11  2  0  0  0  0
  7 15  1  0  0  0  0
  9 12  2  0  0  0  0
  9 16  1  0  0  0  0
 10 17  1  0  0  0  0
 11 12  1  0  0  0  0
 11 13  1  0  0  0  0
 12 18  1  0  0  0  0
 13 19  1  0  0  0  0
 13 20  1  0  0  0  0
 13 21  1  0  0  0  0
  2 22  1  0  0  0  0
M  END
> <OPENEYE_ISO_SMILES>
Cc1ccc2c(c1)cc([nH]2)C(=O)O

> <OPENEYE_INCHI>
InChI=1S/C10H9NO2/c1-6-2-3-8-7(4-6)5-9(11-8)10(12)13/h2-5,11H,1H3,(H,12,13)

> <OPENEYE_INCHIKEY>
DAITVOCMWPNFTL-UHFFFAOYSA-N

> <FORMULA>
C10H9NO2

$$$$
