8I7
  -OEChem-02242320013D

 79 81  0     1  0  0  0  0  0999 V2000
   -5.7270   -1.2800   -1.1690 C   0  0  0  0  0  0  0  0  0  0  0  0
   -2.5300   -0.0720    0.5560 C   0  0  2  0  0  0  0  0  0  0  0  0
   -1.1390   -0.1730   -0.0170 C   0  0  0  0  0  0  0  0  0  0  0  0
   -0.4720    2.1070    0.8880 C   0  0  0  0  0  0  0  0  0  0  0  0
    1.0820    0.9830   -0.4520 C   0  0  2  0  0  0  0  0  0  0  0  0
    2.1280    0.6600    0.5850 C   0  0  0  0  0  0  0  0  0  0  0  0
    0.1610    3.2040    0.0050 C   0  0  2  0  0  0  0  0  0  0  0  0
    4.4070    0.0700    1.2130 C   0  0  1  0  0  0  0  0  0  0  0  0
   -0.0440    3.1190   -1.5080 C   0  0  0  0  0  0  0  0  0  0  0  0
    5.5100   -0.7790    0.5780 C   0  0  0  0  0  0  0  0  0  0  0  0
   -7.1380   -0.7120   -1.0040 C   0  0  0  0  0  0  0  0  0  0  0  0
    4.9320   -2.1300    0.1510 C   0  0  2  0  0  0  0  0  0  0  0  0
    6.0360   -3.0200   -0.4670 C   0  0  0  0  0  0  0  0  0  0  0  0
    5.8820   -2.7120   -1.9720 C   0  0  0  0  0  0  0  0  0  0  0  0
   -1.1520    2.1960   -2.0190 C   0  0  0  0  0  0  0  0  0  0  0  0
    3.9320   -1.9480   -0.9690 C   0  0  0  0  0  0  0  0  0  0  0  0
    0.1780    4.3960   -2.3220 C   0  0  0  0  0  0  0  0  0  0  0  0
   -2.2390   -2.1480    1.9160 C   0  0  0  0  0  0  0  0  0  0  0  0
   -8.0870   -1.4170   -1.9750 C   0  0  0  0  0  0  0  0  0  0  0  0
   -2.5400   -0.6490    1.9730 C   0  0  0  0  0  0  0  0  0  0  0  0
   -1.4750    0.0530    2.8180 C   0  0  0  0  0  0  0  0  0  0  0  0
   -3.9170   -0.4290    2.6020 C   0  0  0  0  0  0  0  0  0  0  0  0
    1.1860    2.4630   -0.8780 C   0  0  2  0  0  0  0  0  0  0  0  0
   -7.6150   -0.9400    0.4320 C   0  0  0  0  0  0  0  0  0  0  0  0
    5.0090    1.3700    1.7510 C   0  0  0  0  0  0  0  0  0  0  0  0
   -4.7690   -0.5030   -0.3030 C   0  0  0  0  0  0  0  0  0  0  0  0
   -3.4610   -0.8270   -0.2860 N   0  0  0  0  0  0  0  0  0  0  0  0
   -0.2770    0.8530    0.1230 N   0  0  0  0  0  0  0  0  0  0  0  0
    3.3910    0.3840    0.2050 N   0  0  0  0  0  0  0  0  0  0  0  0
    4.4880   -2.2860   -2.1450 N   0  0  0  0  0  0  0  0  0  0  0  0
    2.7940   -1.5550   -0.8270 O   0  0  0  0  0  0  0  0  0  0  0  0
   -5.1750    0.4140    0.3790 O   0  0  0  0  0  0  0  0  0  0  0  0
   -0.7970   -1.1770   -0.6040 O   0  0  0  0  0  0  0  0  0  0  0  0
    1.8320    0.6500    1.7610 O   0  0  0  0  0  0  0  0  0  0  0  0
    5.7110    2.0390    0.7020 O   0  0  0  0  0  0  0  0  0  0  0  0
   -5.7190   -2.3280   -0.8690 H   0  0  0  0  0  0  0  0  0  0  0  0
   -5.4220   -1.1970   -2.2120 H   0  0  0  0  0  0  0  0  0  0  0  0
   -2.8350    0.9740    0.5870 H   0  0  0  0  0  0  0  0  0  0  0  0
    0.0400    2.0490    1.8490 H   0  0  0  0  0  0  0  0  0  0  0  0
   -1.5350    2.3020    1.0340 H   0  0  0  0  0  0  0  0  0  0  0  0
    1.1930    0.3290   -1.3180 H   0  0  0  0  0  0  0  0  0  0  0  0
    0.3920    4.1600    0.4760 H   0  0  0  0  0  0  0  0  0  0  0  0
    3.9480   -0.4840    2.0310 H   0  0  0  0  0  0  0  0  0  0  0  0
    5.9090   -0.2620   -0.2960 H   0  0  0  0  0  0  0  0  0  0  0  0
    6.3090   -0.9370    1.3020 H   0  0  0  0  0  0  0  0  0  0  0  0
   -7.1270    0.3560   -1.2180 H   0  0  0  0  0  0  0  0  0  0  0  0
    4.4670   -2.6300    1.0010 H   0  0  0  0  0  0  0  0  0  0  0  0
    7.0220   -2.7250   -0.1070 H   0  0  0  0  0  0  0  0  0  0  0  0
    5.8470   -4.0730   -0.2620 H   0  0  0  0  0  0  0  0  0  0  0  0
    6.5600   -1.9100   -2.2650 H   0  0  0  0  0  0  0  0  0  0  0  0
    6.0790   -3.6070   -2.5620 H   0  0  0  0  0  0  0  0  0  0  0  0
   -1.9550    2.7960   -2.4490 H   0  0  0  0  0  0  0  0  0  0  0  0
   -0.7480    1.5300   -2.7810 H   0  0  0  0  0  0  0  0  0  0  0  0
   -1.5440    1.6060   -1.1910 H   0  0  0  0  0  0  0  0  0  0  0  0
    0.6090    5.1650   -1.6820 H   0  0  0  0  0  0  0  0  0  0  0  0
    0.8590    4.1860   -3.1470 H   0  0  0  0  0  0  0  0  0  0  0  0
   -0.7760    4.7450   -2.7180 H   0  0  0  0  0  0  0  0  0  0  0  0
   -1.2580   -2.3040    1.4670 H   0  0  0  0  0  0  0  0  0  0  0  0
   -2.2470   -2.5590    2.9250 H   0  0  0  0  0  0  0  0  0  0  0  0
   -2.9980   -2.6480    1.3140 H   0  0  0  0  0  0  0  0  0  0  0  0
   -8.0980   -2.4860   -1.7610 H   0  0  0  0  0  0  0  0  0  0  0  0
   -9.0930   -1.0130   -1.8580 H   0  0  0  0  0  0  0  0  0  0  0  0
   -7.7480   -1.2550   -2.9980 H   0  0  0  0  0  0  0  0  0  0  0  0
   -0.4910   -0.1270    2.3850 H   0  0  0  0  0  0  0  0  0  0  0  0
   -1.6740    1.1250    2.8360 H   0  0  0  0  0  0  0  0  0  0  0  0
   -1.5020   -0.3380    3.8350 H   0  0  0  0  0  0  0  0  0  0  0  0
   -3.9250   -0.8400    3.6120 H   0  0  0  0  0  0  0  0  0  0  0  0
   -4.1320    0.6390    2.6440 H   0  0  0  0  0  0  0  0  0  0  0  0
   -4.6760   -0.9300    2.0010 H   0  0  0  0  0  0  0  0  0  0  0  0
    2.1750    2.8740   -1.0780 H   0  0  0  0  0  0  0  0  0  0  0  0
   -6.9380   -0.4380    1.1230 H   0  0  0  0  0  0  0  0  0  0  0  0
   -8.6200   -0.5360    0.5490 H   0  0  0  0  0  0  0  0  0  0  0  0
   -7.6260   -2.0090    0.6460 H   0  0  0  0  0  0  0  0  0  0  0  0
    4.2120    2.0130    2.1230 H   0  0  0  0  0  0  0  0  0  0  0  0
    5.7000    1.1410    2.5620 H   0  0  0  0  0  0  0  0  0  0  0  0
   -3.1360   -1.5610   -0.8310 H   0  0  0  0  0  0  0  0  0  0  0  0
    3.6270    0.3920   -0.7360 H   0  0  0  0  0  0  0  0  0  0  0  0
    4.0280   -2.2530   -2.9980 H   0  0  0  0  0  0  0  0  0  0  0  0
    6.1200    2.8730    0.9720 H   0  0  0  0  0  0  0  0  0  0  0  0
 20 22  1  0  0  0  0
 18 20  1  0  0  0  0
 26 32  2  0  0  0  0
  4  7  1  0  0  0  0
  4 28  1  0  0  0  0
  7 23  1  0  0  0  0
  7  9  1  0  0  0  0
  2 20  1  0  0  0  0
 20 21  1  0  0  0  0
  6 34  2  0  0  0  0
  2 27  1  0  0  0  0
  2  3  1  0  0  0  0
  9 17  1  0  0  0  0
 26 27  1  0  0  0  0
  1 26  1  0  0  0  0
  3 28  1  0  0  0  0
  5 28  1  0  0  0  0
  9 23  1  0  0  0  0
  5 23  1  0  0  0  0
  9 15  1  0  0  0  0
  3 33  2  0  0  0  0
  5  6  1  0  0  0  0
  6 29  1  0  0  0  0
  1 11  1  0  0  0  0
 13 14  1  0  0  0  0
 12 13  1  0  0  0  0
 14 30  1  0  0  0  0
 11 19  1  0  0  0  0
  8 29  1  0  0  0  0
  8 25  1  0  0  0  0
  8 10  1  0  0  0  0
 11 24  1  0  0  0  0
 25 35  1  0  0  0  0
 10 12  1  0  0  0  0
 12 16  1  0  0  0  0
 16 30  1  0  0  0  0
 16 31  2  0  0  0  0
  1 36  1  0  0  0  0
  1 37  1  0  0  0  0
  2 38  1  0  0  0  0
  4 39  1  0  0  0  0
  4 40  1  0  0  0  0
  5 41  1  0  0  0  0
  7 42  1  0  0  0  0
  8 43  1  0  0  0  0
 10 44  1  0  0  0  0
 10 45  1  0  0  0  0
 11 46  1  0  0  0  0
 12 47  1  0  0  0  0
 13 48  1  0  0  0  0
 13 49  1  0  0  0  0
 14 50  1  0  0  0  0
 14 51  1  0  0  0  0
 15 52  1  0  0  0  0
 15 53  1  0  0  0  0
 15 54  1  0  0  0  0
 17 55  1  0  0  0  0
 17 56  1  0  0  0  0
 17 57  1  0  0  0  0
 18 58  1  0  0  0  0
 18 59  1  0  0  0  0
 18 60  1  0  0  0  0
 19 61  1  0  0  0  0
 19 62  1  0  0  0  0
 19 63  1  0  0  0  0
 21 64  1  0  0  0  0
 21 65  1  0  0  0  0
 21 66  1  0  0  0  0
 22 67  1  0  0  0  0
 22 68  1  0  0  0  0
 22 69  1  0  0  0  0
 23 70  1  0  0  0  0
 24 71  1  0  0  0  0
 24 72  1  0  0  0  0
 24 73  1  0  0  0  0
 25 74  1  0  0  0  0
 25 75  1  0  0  0  0
 27 76  1  0  0  0  0
 29 77  1  0  0  0  0
 30 78  1  0  0  0  0
 35 79  1  0  0  0  0
M  END
> <OPENEYE_ISO_SMILES>
CC(C)CC(=O)N[C@H](C(=O)N1C[C@H]2[C@@H]([C@H]1C(=O)N[C@@H](C[C@@H]3CCNC3=O)CO)C2(C)C)C(C)(C)C

> <OPENEYE_INCHI>
InChI=1S/C26H44N4O5/c1-14(2)10-18(32)29-21(25(3,4)5)24(35)30-12-17-19(26(17,6)7)20(30)23(34)28-16(13-31)11-15-8-9-27-22(15)33/h14-17,19-21,31H,8-13H2,1-7H3,(H,27,33)(H,28,34)(H,29,32)/t15-,16-,17-,19-,20-,21+/m0/s1

> <OPENEYE_INCHIKEY>
YJDABKUOTKRKDF-RZCQQDKOSA-N

> <FORMULA>
C26H44N4O5

$$$$
