M40
  -OEChem-02242320033D

 71 73  0     1  0  0  0  0  0999 V2000
    2.6080    0.5740    1.2140 O   0  0  0  0  0  0  0  0  0  0  0  0
    2.6740   -0.2260    0.3030 C   0  0  0  0  0  0  0  0  0  0  0  0
    3.8640   -0.7420   -0.0570 O   0  0  0  0  0  0  0  0  0  0  0  0
    5.0280   -0.2960    0.6890 C   0  0  0  0  0  0  0  0  0  0  0  0
    6.2600   -0.9750    0.1500 C   0  0  0  0  0  0  0  0  0  0  0  0
    6.9800   -0.3890   -0.8750 C   0  0  0  0  0  0  0  0  0  0  0  0
    8.1110   -1.0120   -1.3700 C   0  0  0  0  0  0  0  0  0  0  0  0
    8.5220   -2.2210   -0.8400 C   0  0  0  0  0  0  0  0  0  0  0  0
    7.8020   -2.8070    0.1840 C   0  0  0  0  0  0  0  0  0  0  0  0
    6.6740   -2.1810    0.6830 C   0  0  0  0  0  0  0  0  0  0  0  0
    1.5530   -0.6020   -0.3460 N   0  0  0  0  0  0  0  0  0  0  0  0
    0.2570   -0.0460    0.0490 C   0  0  1  0  0  0  0  0  0  0  0  0
    0.0410    1.2940   -0.6570 C   0  0  0  0  0  0  0  0  0  0  0  0
    1.0810    2.3030   -0.1670 C   0  0  0  0  0  0  0  0  0  0  0  0
    0.9440    3.6030   -0.9620 C   0  0  0  0  0  0  0  0  0  0  0  0
    1.9850    4.6130   -0.4710 C   0  0  0  0  0  0  0  0  0  0  0  0
    1.7580    4.8970    1.0150 C   0  0  0  0  0  0  0  0  0  0  0  0
    1.8940    3.5970    1.8100 C   0  0  0  0  0  0  0  0  0  0  0  0
    0.8540    2.5880    1.3190 C   0  0  0  0  0  0  0  0  0  0  0  0
   -0.8400   -1.0020   -0.3410 C   0  0  0  0  0  0  0  0  0  0  0  0
   -2.1260   -0.6980   -0.0750 N   0  0  0  0  0  0  0  0  0  0  0  0
   -3.1930   -1.6280   -0.4540 C   0  0  1  0  0  0  0  0  0  0  0  0
   -4.4070   -1.4060    0.4500 C   0  0  0  0  0  0  0  0  0  0  0  0
   -4.0660   -1.8370    1.8780 C   0  0  2  0  0  0  0  0  0  0  0  0
   -5.2890   -1.6520    2.8060 C   0  0  0  0  0  0  0  0  0  0  0  0
   -5.0310   -0.2450    3.3890 C   0  0  0  0  0  0  0  0  0  0  0  0
   -3.5780   -0.0510    3.3140 N   0  0  0  0  0  0  0  0  0  0  0  0
   -3.0110   -0.9280    2.4680 C   0  0  0  0  0  0  0  0  0  0  0  0
   -1.8270   -0.9820    2.2140 O   0  0  0  0  0  0  0  0  0  0  0  0
   -4.7070   -2.2070   -2.2460 O   0  0  0  0  0  0  0  0  0  0  0  0
   -0.5660   -2.0460   -0.8940 O   0  0  0  0  0  0  0  0  0  0  0  0
    5.1330    0.7840    0.5860 H   0  0  0  0  0  0  0  0  0  0  0  0
    6.6590    0.5550   -1.2890 H   0  0  0  0  0  0  0  0  0  0  0  0
    0.1450    1.1580   -1.7340 H   0  0  0  0  0  0  0  0  0  0  0  0
   -0.9600    1.6650   -0.4340 H   0  0  0  0  0  0  0  0  0  0  0  0
    2.0800    1.8930   -0.3100 H   0  0  0  0  0  0  0  0  0  0  0  0
    1.1060    3.4010   -2.0200 H   0  0  0  0  0  0  0  0  0  0  0  0
   -0.0550    4.0140   -0.8190 H   0  0  0  0  0  0  0  0  0  0  0  0
    2.9840    4.2020   -0.6140 H   0  0  0  0  0  0  0  0  0  0  0  0
    1.8870    5.5390   -1.0380 H   0  0  0  0  0  0  0  0  0  0  0  0
    2.4990    5.6160    1.3640 H   0  0  0  0  0  0  0  0  0  0  0  0
    0.7580    5.3070    1.1580 H   0  0  0  0  0  0  0  0  0  0  0  0
    2.8940    3.1870    1.6670 H   0  0  0  0  0  0  0  0  0  0  0  0
    1.7320    3.8000    2.8680 H   0  0  0  0  0  0  0  0  0  0  0  0
   -0.1460    2.9980    1.4620 H   0  0  0  0  0  0  0  0  0  0  0  0
    0.9510    1.6620    1.8860 H   0  0  0  0  0  0  0  0  0  0  0  0
   -2.3450    0.1370    0.3680 H   0  0  0  0  0  0  0  0  0  0  0  0
   -2.8380   -2.6520   -0.3410 H   0  0  0  0  0  0  0  0  0  0  0  0
   -4.6770   -0.3500    0.4440 H   0  0  0  0  0  0  0  0  0  0  0  0
   -5.2460   -1.9970    0.0820 H   0  0  0  0  0  0  0  0  0  0  0  0
   -3.7280   -2.8730    1.8920 H   0  0  0  0  0  0  0  0  0  0  0  0
   -6.2180   -1.6730    2.2360 H   0  0  0  0  0  0  0  0  0  0  0  0
   -5.2990   -2.4050    3.5930 H   0  0  0  0  0  0  0  0  0  0  0  0
   -5.5440    0.5100    2.7950 H   0  0  0  0  0  0  0  0  0  0  0  0
   -5.3660   -0.2000    4.4260 H   0  0  0  0  0  0  0  0  0  0  0  0
   -3.0900    0.6240    3.8110 H   0  0  0  0  0  0  0  0  0  0  0  0
   -4.5400   -3.1540   -2.1510 H   0  0  0  0  0  0  0  0  0  0  0  0
   -4.0370    0.3620   -2.1300 S   0  0  0  0  0  0  0  0  0  0  0  0
   -4.1270    0.6840   -3.5110 O   0  0  0  0  0  0  0  0  0  0  0  0
   -2.8170    1.1310   -1.6440 O   0  0  0  0  0  0  0  0  0  0  0  0
   -5.0670    0.7300   -1.2230 O   0  0  0  0  0  0  0  0  0  0  0  0
   -3.5890   -1.3820   -1.9110 C   0  0  1  0  0  0  0  0  0  0  0  0
    4.9040   -0.5510    1.7420 H   0  0  0  0  0  0  0  0  0  0  0  0
    8.6730   -0.5540   -2.1700 H   0  0  0  0  0  0  0  0  0  0  0  0
    9.4050   -2.7070   -1.2270 H   0  0  0  0  0  0  0  0  0  0  0  0
    8.1230   -3.7520    0.5980 H   0  0  0  0  0  0  0  0  0  0  0  0
    6.1150   -2.6370    1.4860 H   0  0  0  0  0  0  0  0  0  0  0  0
    1.6050   -1.2410   -1.0740 H   0  0  0  0  0  0  0  0  0  0  0  0
    0.2400    0.1060    1.1290 H   0  0  0  0  0  0  0  0  0  0  0  0
   -2.9090    2.0920   -1.7010 H   0  0  0  0  0  0  0  0  0  0  0  0
   -2.7500   -1.6260   -2.5620 H   0  0  0  0  0  0  0  0  0  0  0  0
 30 62  1  0  0  0  0
 22 62  1  0  0  0  0
 16 17  1  0  0  0  0
 17 18  1  0  0  0  0
 22 23  1  0  0  0  0
 21 22  1  0  0  0  0
 15 16  1  0  0  0  0
 14 15  1  0  0  0  0
 23 24  1  0  0  0  0
 20 21  1  0  0  0  0
 18 19  1  0  0  0  0
 14 19  1  0  0  0  0
 13 14  1  0  0  0  0
 12 13  1  0  0  0  0
 12 20  1  0  0  0  0
 20 31  2  0  0  0  0
 11 12  1  0  0  0  0
 28 29  2  0  0  0  0
 24 28  1  0  0  0  0
 24 25  1  0  0  0  0
 27 28  1  0  0  0  0
 25 26  1  0  0  0  0
  2 11  1  0  0  0  0
 26 27  1  0  0  0  0
  1  2  2  0  0  0  0
  2  3  1  0  0  0  0
  3  4  1  0  0  0  0
  4  5  1  0  0  0  0
  5 10  2  0  0  0  0
  9 10  1  0  0  0  0
  5  6  1  0  0  0  0
  8  9  2  0  0  0  0
  6  7  2  0  0  0  0
  7  8  1  0  0  0  0
  4 32  1  0  0  0  0
  6 33  1  0  0  0  0
 13 34  1  0  0  0  0
 13 35  1  0  0  0  0
 14 36  1  0  0  0  0
 15 37  1  0  0  0  0
 15 38  1  0  0  0  0
 16 39  1  0  0  0  0
 16 40  1  0  0  0  0
 17 41  1  0  0  0  0
 17 42  1  0  0  0  0
 18 43  1  0  0  0  0
 18 44  1  0  0  0  0
 19 45  1  0  0  0  0
 19 46  1  0  0  0  0
 21 47  1  0  0  0  0
 22 48  1  0  0  0  0
 23 49  1  0  0  0  0
 23 50  1  0  0  0  0
 24 51  1  0  0  0  0
 25 52  1  0  0  0  0
 25 53  1  0  0  0  0
 26 54  1  0  0  0  0
 26 55  1  0  0  0  0
 27 56  1  0  0  0  0
 30 57  1  0  0  0  0
 58 59  2  0  0  0  0
 58 60  1  0  0  0  0
 58 61  2  0  0  0  0
 58 62  1  0  0  0  0
  4 63  1  0  0  0  0
  7 64  1  0  0  0  0
  8 65  1  0  0  0  0
  9 66  1  0  0  0  0
 10 67  1  0  0  0  0
 11 68  1  0  0  0  0
 12 69  1  0  0  0  0
 60 70  1  0  0  0  0
 62 71  1  0  0  0  0
M  END
> <OPENEYE_ISO_SMILES>
c1ccc(cc1)COC(=O)N[C@@H](CC2CCCCC2)C(=O)N[C@@H](C[C@@H]3CCNC3=O)[C@@H](O)S(=O)(=O)O

> <OPENEYE_INCHI>
InChI=1S/C24H35N3O8S/c28-21-18(11-12-25-21)14-20(23(30)36(32,33)34)26-22(29)19(13-16-7-3-1-4-8-16)27-24(31)35-15-17-9-5-2-6-10-17/h2,5-6,9-10,16,18-20,23,30H,1,3-4,7-8,11-15H2,(H,25,28)(H,26,29)(H,27,31)(H,32,33,34)/t18-,19-,20-,23-/m0/s1

> <OPENEYE_INCHIKEY>
JRFNCWJMGHZHFL-MXBUBSDBSA-N

> <FORMULA>
C24H35N3O8S

$$$$
