FNO
  -OEChem-02242320023D

 37 38  0     1  0  0  0  0  0999 V2000
    0.3100   -0.8210    0.3060 C   0  0  0  0  0  0  0  0  0  0  0  0
    1.4590    1.7920    0.3280 C   0  0  0  0  0  0  0  0  0  0  0  0
    2.5280   -1.7580   -0.3490 C   0  0  0  0  0  0  0  0  0  0  0  0
   -5.0450    0.2380   -0.7050 C   0  0  0  0  0  0  0  0  0  0  0  0
   -4.5680    0.9040   -1.9700 C   0  0  0  0  0  0  0  0  0  0  0  0
   -6.5040    0.2850   -0.3320 C   0  0  0  0  0  0  0  0  0  0  0  0
   -1.9590    0.1870    0.9930 C   0  0  1  0  0  0  0  0  0  0  0  0
   -0.5020    0.3610    0.6490 C   0  0  0  0  0  0  0  0  0  0  0  0
   -2.7160   -0.3240   -0.2350 C   0  0  0  0  0  0  0  0  0  0  0  0
    1.7360   -0.6560   -0.0250 C   0  0  0  0  0  0  0  0  0  0  0  0
    2.3030    0.6340   -0.0140 C   0  0  0  0  0  0  0  0  0  0  0  0
    0.0370    1.5870    0.6600 C   0  0  0  0  0  0  0  0  0  0  0  0
   -4.1900   -0.3820    0.0710 C   0  0  0  0  0  0  0  0  0  0  0  0
    3.6520    0.7990   -0.3330 C   0  0  0  0  0  0  0  0  0  0  0  0
    3.8790   -1.5740   -0.6600 C   0  0  0  0  0  0  0  0  0  0  0  0
    4.4310   -0.3160   -0.6540 C   0  0  0  0  0  0  0  0  0  0  0  0
   -2.0880   -0.7570    2.0580 O   0  0  0  0  0  0  0  0  0  0  0  0
   -0.1940   -1.9270    0.3000 O   0  0  0  0  0  0  0  0  0  0  0  0
    1.9920   -3.0030   -0.3560 O   0  0  0  0  0  0  0  0  0  0  0  0
    1.9340    2.9110    0.3420 O   0  0  0  0  0  0  0  0  0  0  0  0
    4.2040    2.0370   -0.3310 O   0  0  0  0  0  0  0  0  0  0  0  0
   -4.0320    0.1790   -2.5830 H   0  0  0  0  0  0  0  0  0  0  0  0
   -5.4250    1.2860   -2.5250 H   0  0  0  0  0  0  0  0  0  0  0  0
   -3.9020    1.7290   -1.7180 H   0  0  0  0  0  0  0  0  0  0  0  0
   -7.0170   -0.5760   -0.7620 H   0  0  0  0  0  0  0  0  0  0  0  0
   -6.6030    0.2620    0.7530 H   0  0  0  0  0  0  0  0  0  0  0  0
   -6.9480    1.2020   -0.7180 H   0  0  0  0  0  0  0  0  0  0  0  0
   -2.3760    1.1450    1.3040 H   0  0  0  0  0  0  0  0  0  0  0  0
   -2.5450    0.3510   -1.0740 H   0  0  0  0  0  0  0  0  0  0  0  0
   -2.3590   -1.3210   -0.4930 H   0  0  0  0  0  0  0  0  0  0  0  0
   -0.5770    2.4380    0.9160 H   0  0  0  0  0  0  0  0  0  0  0  0
   -4.5420   -0.9330    0.9300 H   0  0  0  0  0  0  0  0  0  0  0  0
    4.4930   -2.4280   -0.9050 H   0  0  0  0  0  0  0  0  0  0  0  0
    5.4750   -0.1870   -0.9010 H   0  0  0  0  0  0  0  0  0  0  0  0
   -1.7370   -1.6340    1.8510 H   0  0  0  0  0  0  0  0  0  0  0  0
    2.0460   -3.4590    0.4950 H   0  0  0  0  0  0  0  0  0  0  0  0
    4.5780    2.3000    0.5210 H   0  0  0  0  0  0  0  0  0  0  0  0
  4  6  1  0  0  0  0
  4  5  1  0  0  0  0
  4 13  2  0  0  0  0
  9 13  1  0  0  0  0
  7 17  1  0  0  0  0
  7  9  1  0  0  0  0
  7  8  1  0  0  0  0
  8 12  2  0  0  0  0
  2 12  1  0  0  0  0
  1  8  1  0  0  0  0
  2 20  2  0  0  0  0
  2 11  1  0  0  0  0
  1 18  2  0  0  0  0
  1 10  1  0  0  0  0
 10 11  2  0  0  0  0
 11 14  1  0  0  0  0
  3 10  1  0  0  0  0
 14 21  1  0  0  0  0
 14 16  2  0  0  0  0
  3 19  1  0  0  0  0
  3 15  2  0  0  0  0
 15 16  1  0  0  0  0
  5 22  1  0  0  0  0
  5 23  1  0  0  0  0
  5 24  1  0  0  0  0
  6 25  1  0  0  0  0
  6 26  1  0  0  0  0
  6 27  1  0  0  0  0
  7 28  1  0  0  0  0
  9 29  1  0  0  0  0
  9 30  1  0  0  0  0
 12 31  1  0  0  0  0
 13 32  1  0  0  0  0
 15 33  1  0  0  0  0
 16 34  1  0  0  0  0
 17 35  1  0  0  0  0
 19 36  1  0  0  0  0
 21 37  1  0  0  0  0
M  END
> <OPENEYE_ISO_SMILES>
CC(=CC[C@H](C1=CC(=O)c2c(ccc(c2C1=O)O)O)O)C

> <OPENEYE_INCHI>
InChI=1S/C16H16O5/c1-8(2)3-4-10(17)9-7-13(20)14-11(18)5-6-12(19)15(14)16(9)21/h3,5-7,10,17-19H,4H2,1-2H3/t10-/m1/s1

> <OPENEYE_INCHIKEY>
NEZONWMXZKDMKF-SNVBAGLBSA-N

> <FORMULA>
C16H16O5

$$$$
