@<TRIPOS>MOLECULE
/home/pku/3cl/gett_pdb/7TEL/7TEL_mol2/ligand/7TEL_I2N.pdb
 34 38 0 0 0
SMALL
GASTEIGER

@<TRIPOS>ATOM
      1  C10       10.0400   -3.4730   24.7040 C.ar  401  I2N401      0.0193
      2  C11        9.8330   -4.7020   25.5610 C.ar  401  I2N401      0.1022
      3  C12       10.5360   -5.8130   25.5760 C.ar  401  I2N401      0.1197
      4  C14        9.0360   -6.0020   26.9950 C.ar  401  I2N401      0.1990
      5  C16       10.8500   -3.4820   23.6180 C.ar  401  I2N401      0.0028
      6  C17       10.9970   -2.3300   22.8870 C.ar  401  I2N401      0.0150
      7  C18        9.9200    0.3730   21.2920 C.2   401  I2N401      0.2341
      8  C19        9.1390   -0.6250   20.4590 C.3   401  I2N401      0.1134
      9  C20        8.1300    0.0030   19.5130 C.ar  401  I2N401      0.0061
     10  C21        8.3630   -0.0730   18.1850 C.ar  401  I2N401      0.0951
     11  C23        6.4960    1.1050   17.6860 C.ar  401  I2N401      0.0988
     12  C24        6.1720    1.2400   19.0370 C.ar  401  I2N401      0.0189
     13  C25        6.9880    0.6860   19.9440 C.ar  401  I2N401     -0.0005
     14  C26        6.6930    0.8370   21.2830 C.ar  401  I2N401     -0.0002
     15  C27        5.5680    1.5170   21.6380 C.ar  401  I2N401     -0.0000
     16  C28        4.7380    2.0600   20.7090 C.ar  401  I2N401      0.0000
     17  C29        5.0150    1.9410   19.3970 C.ar  401  I2N401      0.0015
     18  C31       13.1700    0.1050   22.6220 C.ar  401  I2N401      0.0271
     19  C32       14.4200    0.1550   22.1080 C.ar  401  I2N401      0.1407
     20  C34       14.9890    1.3840   21.7740 C.ar  401  I2N401      0.0410
     21  C02       14.2790    2.5690   21.9420 C.ar  401  I2N401      0.0596
     22  C03       13.0060    2.5050   22.4690 C.ar  401  I2N401      0.0089
     23  C04       12.4940    1.2590   22.7990 C.ar  401  I2N401      0.0011
     24  C05       11.1370    1.0470   23.3370 C.3   401  I2N401      0.1248
     25  C07       10.3210   -1.1950   23.2620 C.ar  401  I2N401      0.0542
     26  C08        9.5380   -1.2010   24.3550 C.ar  401  I2N401      0.0150
     27  C09        9.3940   -2.3220   25.0710 C.ar  401  I2N401      0.0028
     28  F33       15.0170   -1.0180   21.9620 F     401  I2N401     -0.2042
     29  N06       10.4490    0.0540   22.5880 N.am  401  I2N401     -0.2541
     30  N13       10.0390   -6.5890   26.4470 N.ar  401  I2N401     -0.2209
     31  N15        8.9350   -4.8280   26.4610 N.ar  401  I2N401     -0.2224
     32  N22        7.5600    0.4750   17.3460 N.ar  401  I2N401     -0.2426
     33  O30       10.1030    1.4180   20.8880 O.2   401  I2N401     -0.2742
     34 CL01       14.9840    4.1390   21.4990 Cl    401  I2N401     -0.0822
@<TRIPOS>BOND
     1    32    11   ar
     2    32    10   ar
     3    11    12   ar
     4    10     9   ar
     5    12    17   ar
     6    12    13   ar
     7    17    16   ar
     8     9    13   ar
     9     9     8    1
    10    13    14   ar
    11     8     7    1
    12    16    15   ar
    13    33     7    2
    14    14    15   ar
    15     7    29   am
    16    34    21    1
    17    20    21   ar
    18    20    19   ar
    19    21    22   ar
    20    28    19    1
    21    19    18   ar
    22    22    23   ar
    23    29    25    1
    24    29    24    1
    25    18    23   ar
    26    23    24    1
    27     6    25   ar
    28     6     5   ar
    29    25    26   ar
    30     5     1   ar
    31    26    27   ar
    32     1    27   ar
    33     1     2    1
    34     2     3   ar
    35     2    31   ar
    36     3    30   ar
    37    30     4   ar
    38    31     4   ar
