LQP
  -OEChem-02242320033D

 30 31  0     1  0  0  0  0  0999 V2000
   -0.7900   -0.5360    0.3290 N   0  0  0  0  0  0  0  0  0  0  0  0
   -1.0750    0.6870    1.0970 C   0  0  0  0  0  0  0  0  0  0  0  0
   -2.5740    0.9810    0.8610 C   0  0  1  0  0  0  0  0  0  0  0  0
   -2.7460    1.5170   -0.5780 C   0  0  0  0  0  0  0  0  0  0  0  0
   -4.0820    0.9240   -1.0640 C   0  0  0  0  0  0  0  0  0  0  0  0
   -4.3400   -0.3340   -0.2200 C   0  0  0  0  0  0  0  0  0  0  0  0
   -2.0420   -1.2810    0.1440 C   0  0  0  0  0  0  0  0  0  0  0  0
    3.8470    1.3680   -0.8350 F   0  0  0  0  0  0  0  0  0  0  0  0
    3.9860    0.0980   -0.2640 C   0  0  0  0  0  0  0  0  0  0  0  0
    4.2390    0.2270    1.1060 F   0  0  0  0  0  0  0  0  0  0  0  0
    2.7810   -0.6460   -0.4580 O   0  0  0  0  0  0  0  0  0  0  0  0
    1.6260   -0.0440    0.1300 C   0  0  0  0  0  0  0  0  0  0  0  0
    0.4200   -0.9080   -0.1340 C   0  0  0  0  0  0  0  0  0  0  0  0
    0.5380   -1.9380   -0.7640 O   0  0  0  0  0  0  0  0  0  0  0  0
   -3.1760   -0.4570    0.7780 C   0  0  1  0  0  0  0  0  0  0  0  0
   -0.8860    0.5180    2.1580 H   0  0  0  0  0  0  0  0  0  0  0  0
   -0.4660    1.5130    0.7310 H   0  0  0  0  0  0  0  0  0  0  0  0
   -3.0250    1.6060    1.6310 H   0  0  0  0  0  0  0  0  0  0  0  0
   -2.7930    2.6060   -0.5740 H   0  0  0  0  0  0  0  0  0  0  0  0
   -1.9260    1.1740   -1.2100 H   0  0  0  0  0  0  0  0  0  0  0  0
   -4.8860    1.6450   -0.9140 H   0  0  0  0  0  0  0  0  0  0  0  0
   -4.0100    0.6580   -2.1180 H   0  0  0  0  0  0  0  0  0  0  0  0
   -5.2820   -0.2330    0.3190 H   0  0  0  0  0  0  0  0  0  0  0  0
   -4.3740   -1.2130   -0.8640 H   0  0  0  0  0  0  0  0  0  0  0  0
   -2.2370   -1.4200   -0.9200 H   0  0  0  0  0  0  0  0  0  0  0  0
   -1.9710   -2.2510    0.6360 H   0  0  0  0  0  0  0  0  0  0  0  0
    4.8160   -0.4250   -0.7390 H   0  0  0  0  0  0  0  0  0  0  0  0
    1.7740    0.0540    1.2050 H   0  0  0  0  0  0  0  0  0  0  0  0
    1.4690    0.9420   -0.3070 H   0  0  0  0  0  0  0  0  0  0  0  0
   -3.4840   -0.8430    1.7500 H   0  0  0  0  0  0  0  0  0  0  0  0
  1  2  1  0  0  0  0
  2  3  1  0  0  0  0
  9 10  1  0  0  0  0
  3  4  1  0  0  0  0
  4  5  1  0  0  0  0
 12 13  1  0  0  0  0
 11 12  1  0  0  0  0
  1 13  1  0  0  0  0
 13 14  2  0  0  0  0
  1  7  1  0  0  0  0
  3 15  1  0  0  0  0
  9 11  1  0  0  0  0
  8  9  1  0  0  0  0
  5  6  1  0  0  0  0
  7 15  1  0  0  0  0
  6 15  1  0  0  0  0
  2 16  1  0  0  0  0
  2 17  1  0  0  0  0
  3 18  1  0  0  0  0
  4 19  1  0  0  0  0
  4 20  1  0  0  0  0
  5 21  1  0  0  0  0
  5 22  1  0  0  0  0
  6 23  1  0  0  0  0
  6 24  1  0  0  0  0
  7 25  1  0  0  0  0
  7 26  1  0  0  0  0
  9 27  1  0  0  0  0
 12 28  1  0  0  0  0
 12 29  1  0  0  0  0
 15 30  1  0  0  0  0
M  END
> <OPENEYE_ISO_SMILES>
C1C[C@@H]2CN(C[C@@H]2C1)C(=O)COC(F)F

> <OPENEYE_INCHI>
InChI=1S/C10H15F2NO2/c11-10(12)15-6-9(14)13-4-7-2-1-3-8(7)5-13/h7-8,10H,1-6H2/t7-,8+

> <OPENEYE_INCHIKEY>
GFKMUMPBDKROCT-OCAPTIKFSA-N

> <FORMULA>
C10H15F2NO2

$$$$
