RTV
  -OEChem-02242320043D

 29 29  0     1  0  0  0  0  0999 V2000
    2.1360   -1.9800   -0.5270 O   0  0  0  0  0  0  0  0  0  0  0  0
    1.1490   -0.9630   -0.3420 C   0  0  1  0  0  0  0  0  0  0  0  0
    0.0750   -1.4640    0.6300 C   0  0  2  0  0  0  0  0  0  0  0  0
   -0.5960   -2.5900    0.0620 O   0  0  0  0  0  0  0  0  0  0  0  0
   -0.9340   -0.3390    0.8810 C   0  0  2  0  0  0  0  0  0  0  0  0
   -1.6090    0.0020   -0.3740 N   0  0  0  0  0  0  0  0  0  0  0  0
   -2.8350    0.5610   -0.3490 C   0  0  0  0  0  0  0  0  0  0  0  0
   -3.3800    0.7810    0.7120 O   0  0  0  0  0  0  0  0  0  0  0  0
   -3.5290    0.9130   -1.6400 C   0  0  0  0  0  0  0  0  0  0  0  0
    1.8080    0.2900    0.2400 C   0  0  1  0  0  0  0  0  0  0  0  0
    2.8400    0.8310   -0.7520 C   0  0  0  0  0  0  0  0  0  0  0  0
    3.5370    1.9300   -0.1620 O   0  0  0  0  0  0  0  0  0  0  0  0
    0.8100    1.2850    0.4790 O   0  0  0  0  0  0  0  0  0  0  0  0
   -0.1950    0.8900    1.4150 C   0  0  0  0  0  0  0  0  0  0  0  0
    0.6890   -0.7230   -1.3000 H   0  0  0  0  0  0  0  0  0  0  0  0
    0.5410   -1.7520    1.5720 H   0  0  0  0  0  0  0  0  0  0  0  0
   -0.0140   -3.3390   -0.1300 H   0  0  0  0  0  0  0  0  0  0  0  0
   -1.6720   -0.6690    1.6130 H   0  0  0  0  0  0  0  0  0  0  0  0
   -1.1730   -0.1730   -1.2220 H   0  0  0  0  0  0  0  0  0  0  0  0
   -3.6620    0.0110   -2.2380 H   0  0  0  0  0  0  0  0  0  0  0  0
   -4.5030    1.3510   -1.4210 H   0  0  0  0  0  0  0  0  0  0  0  0
   -2.9240    1.6300   -2.1940 H   0  0  0  0  0  0  0  0  0  0  0  0
    2.3020    0.0380    1.1780 H   0  0  0  0  0  0  0  0  0  0  0  0
    3.5500    0.0430   -1.0020 H   0  0  0  0  0  0  0  0  0  0  0  0
    2.3340    1.1650   -1.6570 H   0  0  0  0  0  0  0  0  0  0  0  0
    4.2080    2.3230   -0.7360 H   0  0  0  0  0  0  0  0  0  0  0  0
   -0.9020    1.7070    1.5560 H   0  0  0  0  0  0  0  0  0  0  0  0
    0.2730    0.6460    2.3690 H   0  0  0  0  0  0  0  0  0  0  0  0
    2.8480   -1.7300   -1.1320 H   0  0  0  0  0  0  0  0  0  0  0  0
  1  2  1  0  0  0  0
  2  3  1  0  0  0  0
  2 10  1  0  0  0  0
  3  5  1  0  0  0  0
  3  4  1  0  0  0  0
  5  6  1  0  0  0  0
  5 14  1  0  0  0  0
  6  7  1  0  0  0  0
  7  9  1  0  0  0  0
  7  8  2  0  0  0  0
 10 11  1  0  0  0  0
 10 13  1  0  0  0  0
 11 12  1  0  0  0  0
 13 14  1  0  0  0  0
  2 15  1  0  0  0  0
  3 16  1  0  0  0  0
  4 17  1  0  0  0  0
  5 18  1  0  0  0  0
  6 19  1  0  0  0  0
  9 20  1  0  0  0  0
  9 21  1  0  0  0  0
  9 22  1  0  0  0  0
 10 23  1  0  0  0  0
 11 24  1  0  0  0  0
 11 25  1  0  0  0  0
 12 26  1  0  0  0  0
 14 27  1  0  0  0  0
 14 28  1  0  0  0  0
  1 29  1  0  0  0  0
M  END
> <OPENEYE_ISO_SMILES>
CC(=O)N[C@@H]1CO[C@@H]([C@H]([C@@H]1O)O)CO

> <OPENEYE_INCHI>
InChI=1S/C8H15NO5/c1-4(11)9-5-3-14-6(2-10)8(13)7(5)12/h5-8,10,12-13H,2-3H2,1H3,(H,9,11)/t5-,6-,7-,8-/m1/s1

> <OPENEYE_INCHIKEY>
VCYYRDKGHLOTQU-WCTZXXKLSA-N

> <FORMULA>
C8H15NO5

$$$$
