OCA
  -OEChem-02242320033D

 26 25  0     0  0  0  0  0  0999 V2000
   -5.5870    2.3520    6.1720 C   0  0  0  0  0  0  0  0  0  0  0  0
   -5.9740    1.5200    4.9700 C   0  0  0  0  0  0  0  0  0  0  0  0
   -4.9810    1.6870    3.8200 C   0  0  0  0  0  0  0  0  0  0  0  0
   -5.3460    0.8690    2.5770 C   0  0  0  0  0  0  0  0  0  0  0  0
   -4.3570    0.9540    1.4100 C   0  0  0  0  0  0  0  0  0  0  0  0
   -4.7610    0.1000    0.2070 C   0  0  0  0  0  0  0  0  0  0  0  0
   -3.7360    0.2160   -0.9230 C   0  0  0  0  0  0  0  0  0  0  0  0
   -4.1510   -0.6010   -2.1370 C   0  0  0  0  0  0  0  0  0  0  0  0
   -4.5990    3.0680    6.2520 O   0  0  0  0  0  0  0  0  0  0  0  0
   -6.4880    2.2140    7.1800 O   0  0  0  0  0  0  0  0  0  0  0  0
   -6.0070    0.4690    5.2770 H   0  0  0  0  0  0  0  0  0  0  0  0
   -6.9740    1.8360    4.6550 H   0  0  0  0  0  0  0  0  0  0  0  0
   -3.9850    1.3690    4.1540 H   0  0  0  0  0  0  0  0  0  0  0  0
   -4.8850    2.7470    3.5600 H   0  0  0  0  0  0  0  0  0  0  0  0
   -6.3320    1.1910    2.2190 H   0  0  0  0  0  0  0  0  0  0  0  0
   -5.4550   -0.1810    2.8740 H   0  0  0  0  0  0  0  0  0  0  0  0
   -4.2910    2.0040    1.0980 H   0  0  0  0  0  0  0  0  0  0  0  0
   -3.3530    0.6710    1.7470 H   0  0  0  0  0  0  0  0  0  0  0  0
   -4.8480   -0.9510    0.5040 H   0  0  0  0  0  0  0  0  0  0  0  0
   -5.7460    0.4180   -0.1570 H   0  0  0  0  0  0  0  0  0  0  0  0
   -3.6240    1.2650   -1.2180 H   0  0  0  0  0  0  0  0  0  0  0  0
   -2.7570   -0.1300   -0.5740 H   0  0  0  0  0  0  0  0  0  0  0  0
   -4.2420   -1.6620   -1.8830 H   0  0  0  0  0  0  0  0  0  0  0  0
   -3.4040   -0.5040   -2.9310 H   0  0  0  0  0  0  0  0  0  0  0  0
   -5.1120   -0.2580   -2.5310 H   0  0  0  0  0  0  0  0  0  0  0  0
   -6.2880    2.7370    7.9870 H   0  0  0  0  0  0  0  0  0  0  0  0
  1  2  1  0  0  0  0
  1  9  2  0  0  0  0
  1 10  1  0  0  0  0
  2  3  1  0  0  0  0
  2 11  1  0  0  0  0
  2 12  1  0  0  0  0
  3  4  1  0  0  0  0
  3 13  1  0  0  0  0
  3 14  1  0  0  0  0
  4  5  1  0  0  0  0
  4 15  1  0  0  0  0
  4 16  1  0  0  0  0
  5  6  1  0  0  0  0
  5 17  1  0  0  0  0
  5 18  1  0  0  0  0
  6  7  1  0  0  0  0
  6 19  1  0  0  0  0
  6 20  1  0  0  0  0
  7  8  1  0  0  0  0
  7 21  1  0  0  0  0
  7 22  1  0  0  0  0
  8 23  1  0  0  0  0
  8 24  1  0  0  0  0
  8 25  1  0  0  0  0
 10 26  1  0  0  0  0
M  END
> <OPENEYE_ISO_SMILES>
CCCCCCCC(=O)O

> <OPENEYE_INCHI>
InChI=1S/C8H16O2/c1-2-3-4-5-6-7-8(9)10/h2-7H2,1H3,(H,9,10)

> <OPENEYE_INCHIKEY>
WWZKQHOCKIZLMA-UHFFFAOYSA-N

> <FORMULA>
C8H16O2

$$$$
