XNJ
  -OEChem-02242320043D

 63 67  0     0  0  0  0  0  0999 V2000
    8.6990    2.0840   -0.4600 C   0  0  0  0  0  0  0  0  0  0  0  0
    9.7920    1.5610    0.4750 C   0  0  0  0  0  0  0  0  0  0  0  0
    9.3700    1.7460    1.8700 N   0  0  0  0  0  0  0  0  0  0  0  0
    8.1160    1.0290    2.1380 C   0  0  0  0  0  0  0  0  0  0  0  0
    7.0230    1.5520    1.2040 C   0  0  0  0  0  0  0  0  0  0  0  0
    7.4450    1.3670   -0.1920 N   0  0  0  0  0  0  0  0  0  0  0  0
    6.3880    1.7890   -1.1220 C   0  0  0  0  0  0  0  0  0  0  0  0
    5.2020    0.8700   -0.9840 C   0  0  0  0  0  0  0  0  0  0  0  0
    5.1200   -0.2710   -1.7630 C   0  0  0  0  0  0  0  0  0  0  0  0
    4.0370   -1.1170   -1.6420 C   0  0  0  0  0  0  0  0  0  0  0  0
    4.2020    1.1680   -0.0760 C   0  0  0  0  0  0  0  0  0  0  0  0
    3.1130    0.3300    0.0560 C   0  0  0  0  0  0  0  0  0  0  0  0
    3.0220   -0.8190   -0.7310 C   0  0  0  0  0  0  0  0  0  0  0  0
    1.8580   -1.7210   -0.5960 C   0  0  0  0  0  0  0  0  0  0  0  0
    1.7840   -2.7230   -1.2790 O   0  0  0  0  0  0  0  0  0  0  0  0
    0.8800   -1.4310    0.2850 N   0  0  0  0  0  0  0  0  0  0  0  0
   -0.2670   -2.2290    0.3440 C   0  0  0  0  0  0  0  0  0  0  0  0
   -1.5030   -1.6520    0.5990 C   0  0  0  0  0  0  0  0  0  0  0  0
   -0.1700   -3.6000    0.1420 C   0  0  0  0  0  0  0  0  0  0  0  0
   -1.3030   -4.3900    0.2000 C   0  0  0  0  0  0  0  0  0  0  0  0
   -2.5340   -3.8200    0.4590 C   0  0  0  0  0  0  0  0  0  0  0  0
   -3.7660   -4.6850    0.5220 C   0  0  0  0  0  0  0  0  0  0  0  0
   -2.6380   -2.4480    0.6570 C   0  0  0  0  0  0  0  0  0  0  0  0
   -3.8850   -1.8710    0.9140 N   0  0  0  0  0  0  0  0  0  0  0  0
   -4.2390   -0.6820    0.2960 C   0  0  0  0  0  0  0  0  0  0  0  0
   -5.3140   -0.0010    0.5430 N   0  0  0  0  0  0  0  0  0  0  0  0
   -3.2940    0.1410   -0.9410 S   0  0  0  0  0  0  0  0  0  0  0  0
   -4.5130    1.4110   -1.0300 C   0  0  0  0  0  0  0  0  0  0  0  0
   -5.4860    1.1250   -0.1480 C   0  0  0  0  0  0  0  0  0  0  0  0
   -6.6730    1.9950    0.0340 C   0  0  0  0  0  0  0  0  0  0  0  0
   -7.6630    1.6610    0.9630 C   0  0  0  0  0  0  0  0  0  0  0  0
   -8.7510    2.5060    1.0950 C   0  0  0  0  0  0  0  0  0  0  0  0
   -8.8240    3.6430    0.3110 C   0  0  0  0  0  0  0  0  0  0  0  0
   -7.8750    3.9320   -0.5580 N   0  0  0  0  0  0  0  0  0  0  0  0
   -6.8180    3.1620   -0.7150 C   0  0  0  0  0  0  0  0  0  0  0  0
    8.5520    3.1500   -0.2860 H   0  0  0  0  0  0  0  0  0  0  0  0
    8.9970    1.9220   -1.4950 H   0  0  0  0  0  0  0  0  0  0  0  0
    9.9580    0.5010    0.2830 H   0  0  0  0  0  0  0  0  0  0  0  0
   10.7160    2.1110    0.2980 H   0  0  0  0  0  0  0  0  0  0  0  0
    9.2810    2.7260    2.0940 H   0  0  0  0  0  0  0  0  0  0  0  0
    8.2630   -0.0370    1.9650 H   0  0  0  0  0  0  0  0  0  0  0  0
    7.8180    1.1920    3.1740 H   0  0  0  0  0  0  0  0  0  0  0  0
    6.0990    1.0020    1.3800 H   0  0  0  0  0  0  0  0  0  0  0  0
    6.8570    2.6120    1.3960 H   0  0  0  0  0  0  0  0  0  0  0  0
    6.0860    2.8100   -0.8890 H   0  0  0  0  0  0  0  0  0  0  0  0
    6.7650    1.7450   -2.1440 H   0  0  0  0  0  0  0  0  0  0  0  0
    5.9060   -0.5000   -2.4670 H   0  0  0  0  0  0  0  0  0  0  0  0
    3.9740   -2.0070   -2.2500 H   0  0  0  0  0  0  0  0  0  0  0  0
    4.2740    2.0570    0.5330 H   0  0  0  0  0  0  0  0  0  0  0  0
    2.3330    0.5640    0.7650 H   0  0  0  0  0  0  0  0  0  0  0  0
    0.9710   -0.6680    0.8770 H   0  0  0  0  0  0  0  0  0  0  0  0
   -1.5810   -0.5860    0.7520 H   0  0  0  0  0  0  0  0  0  0  0  0
    0.7910   -4.0490   -0.0620 H   0  0  0  0  0  0  0  0  0  0  0  0
   -1.2250   -5.4560    0.0430 H   0  0  0  0  0  0  0  0  0  0  0  0
   -3.9150   -5.0320    1.5440 H   0  0  0  0  0  0  0  0  0  0  0  0
   -4.6330   -4.1060    0.2040 H   0  0  0  0  0  0  0  0  0  0  0  0
   -3.6410   -5.5440   -0.1380 H   0  0  0  0  0  0  0  0  0  0  0  0
   -4.5020   -2.3030    1.5250 H   0  0  0  0  0  0  0  0  0  0  0  0
   -4.4800    2.2750   -1.6770 H   0  0  0  0  0  0  0  0  0  0  0  0
   -7.5800    0.7660    1.5620 H   0  0  0  0  0  0  0  0  0  0  0  0
   -9.5350    2.2800    1.8020 H   0  0  0  0  0  0  0  0  0  0  0  0
   -9.6720    4.3040    0.4110 H   0  0  0  0  0  0  0  0  0  0  0  0
   -6.0610    3.4320   -1.4360 H   0  0  0  0  0  0  0  0  0  0  0  0
 32 33  2  0  0  0  0
 33 34  1  0  0  0  0
 31 32  1  0  0  0  0
 34 35  2  0  0  0  0
 30 31  2  0  0  0  0
 30 35  1  0  0  0  0
 29 30  1  0  0  0  0
 28 29  2  0  0  0  0
 26 29  1  0  0  0  0
 27 28  1  0  0  0  0
 25 26  2  0  0  0  0
 25 27  1  0  0  0  0
 24 25  1  0  0  0  0
  3  4  1  0  0  0  0
  2  3  1  0  0  0  0
 23 24  1  0  0  0  0
  4  5  1  0  0  0  0
  1  2  1  0  0  0  0
 18 23  2  0  0  0  0
 21 23  1  0  0  0  0
  5  6  1  0  0  0  0
 17 18  1  0  0  0  0
  1  6  1  0  0  0  0
 21 22  1  0  0  0  0
  6  7  1  0  0  0  0
 20 21  2  0  0  0  0
 16 17  1  0  0  0  0
 17 19  2  0  0  0  0
 14 16  1  0  0  0  0
  9 10  2  0  0  0  0
 10 13  1  0  0  0  0
  8  9  1  0  0  0  0
 13 14  1  0  0  0  0
 14 15  2  0  0  0  0
 12 13  2  0  0  0  0
  7  8  1  0  0  0  0
  8 11  2  0  0  0  0
 19 20  1  0  0  0  0
 11 12  1  0  0  0  0
  1 36  1  0  0  0  0
  1 37  1  0  0  0  0
  2 38  1  0  0  0  0
  2 39  1  0  0  0  0
  3 40  1  0  0  0  0
  4 41  1  0  0  0  0
  4 42  1  0  0  0  0
  5 43  1  0  0  0  0
  5 44  1  0  0  0  0
  7 45  1  0  0  0  0
  7 46  1  0  0  0  0
  9 47  1  0  0  0  0
 10 48  1  0  0  0  0
 11 49  1  0  0  0  0
 12 50  1  0  0  0  0
 16 51  1  0  0  0  0
 18 52  1  0  0  0  0
 19 53  1  0  0  0  0
 20 54  1  0  0  0  0
 22 55  1  0  0  0  0
 22 56  1  0  0  0  0
 22 57  1  0  0  0  0
 24 58  1  0  0  0  0
 28 59  1  0  0  0  0
 31 60  1  0  0  0  0
 32 61  1  0  0  0  0
 33 62  1  0  0  0  0
 35 63  1  0  0  0  0
M  END
> <OPENEYE_ISO_SMILES>
Cc1ccc(cc1Nc2nc(cs2)c3cccnc3)NC(=O)c4ccc(cc4)CN5CCNCC5

> <OPENEYE_INCHI>
InChI=1S/C27H28N6OS/c1-19-4-9-23(15-24(19)31-27-32-25(18-35-27)22-3-2-10-29-16-22)30-26(34)21-7-5-20(6-8-21)17-33-13-11-28-12-14-33/h2-10,15-16,18,28H,11-14,17H2,1H3,(H,30,34)(H,31,32)

> <OPENEYE_INCHIKEY>
LBWSNUMFQJZFGI-UHFFFAOYSA-N

> <FORMULA>
C27H28N6OS

$$$$
