H35
  -OEChem-02242320023D

 25 27  0     0  0  0  0  0  0999 V2000
    5.7000    5.1940    2.2520 C   0  0  0  0  0  0  0  0  0  0  0  0
    6.9290    5.2260    1.5510 C   0  0  0  0  0  0  0  0  0  0  0  0
    6.6910    4.6290    0.3350 C   0  0  0  0  0  0  0  0  0  0  0  0
    5.3940    4.2330    0.2440 O   0  0  0  0  0  0  0  0  0  0  0  0
    4.8290    4.5880    1.4120 C   0  0  0  0  0  0  0  0  0  0  0  0
    3.3730    4.2460    1.5440 C   0  0  0  0  0  0  0  0  0  0  0  0
    3.1390    2.8370    1.4180 N   0  0  0  0  0  0  0  0  0  0  0  0
    1.8570    2.2660    1.4630 C   0  0  0  0  0  0  0  0  0  0  0  0
    0.7590    3.0380    1.6280 N   0  0  0  0  0  0  0  0  0  0  0  0
   -0.4430    2.4150    1.6570 C   0  0  0  0  0  0  0  0  0  0  0  0
   -0.7170    1.0980    1.5430 N   0  0  0  0  0  0  0  0  0  0  0  0
    0.4010    0.3500    1.3790 C   0  0  0  0  0  0  0  0  0  0  0  0
    1.6740    0.9030    1.3380 C   0  0  0  0  0  0  0  0  0  0  0  0
    2.5090   -0.1640    1.1630 N   0  0  0  0  0  0  0  0  0  0  0  0
    1.7290   -1.2890    1.1080 C   0  0  0  0  0  0  0  0  0  0  0  0
    0.4490   -1.0130    1.2360 N   0  0  0  0  0  0  0  0  0  0  0  0
    5.5000    5.5720    3.2450 H   0  0  0  0  0  0  0  0  0  0  0  0
    7.8710    5.6320    1.8900 H   0  0  0  0  0  0  0  0  0  0  0  0
    7.3050    4.4210   -0.5290 H   0  0  0  0  0  0  0  0  0  0  0  0
    2.9890    4.5660    2.5190 H   0  0  0  0  0  0  0  0  0  0  0  0
    2.7790    4.7540    0.7770 H   0  0  0  0  0  0  0  0  0  0  0  0
    3.9170    2.2140    1.2890 H   0  0  0  0  0  0  0  0  0  0  0  0
   -1.3020    3.0630    1.7890 H   0  0  0  0  0  0  0  0  0  0  0  0
    3.5170   -0.1320    1.0890 H   0  0  0  0  0  0  0  0  0  0  0  0
    2.1570   -2.2730    0.9740 H   0  0  0  0  0  0  0  0  0  0  0  0
  1  2  1  0  0  0  0
  2  3  2  0  0  0  0
  3  4  1  0  0  0  0
  1  5  2  0  0  0  0
  4  5  1  0  0  0  0
  5  6  1  0  0  0  0
  6  7  1  0  0  0  0
  7  8  1  0  0  0  0
  8  9  1  0  0  0  0
  9 10  2  0  0  0  0
 10 11  1  0  0  0  0
 11 12  2  0  0  0  0
  8 13  2  0  0  0  0
 12 13  1  0  0  0  0
 13 14  1  0  0  0  0
 14 15  1  0  0  0  0
 12 16  1  0  0  0  0
 15 16  2  0  0  0  0
  1 17  1  0  0  0  0
  2 18  1  0  0  0  0
  3 19  1  0  0  0  0
  6 20  1  0  0  0  0
  6 21  1  0  0  0  0
  7 22  1  0  0  0  0
 10 23  1  0  0  0  0
 14 24  1  0  0  0  0
 15 25  1  0  0  0  0
M  END
> <OPENEYE_ISO_SMILES>
c1cc(oc1)CNc2c3c(nc[nH]3)ncn2

> <OPENEYE_INCHI>
InChI=1S/C10H9N5O/c1-2-7(16-3-1)4-11-9-8-10(13-5-12-8)15-6-14-9/h1-3,5-6H,4H2,(H2,11,12,13,14,15)

> <OPENEYE_INCHIKEY>
QANMHLXAZMSUEX-UHFFFAOYSA-N

> <FORMULA>
C10H9N5O

$$$$
