XT7
  -OEChem-02242320043D

 72 76  0     1  0  0  0  0  0999 V2000
   -1.4710    1.3670   -2.6960 C   0  0  0  0  0  0  0  0  0  0  0  0
   -1.4750    0.9890   -1.2140 C   0  0  1  0  0  0  0  0  0  0  0  0
   -2.8550    0.7910   -0.7640 N   0  0  0  0  0  0  0  0  0  0  0  0
   -3.5910    1.8470   -0.3630 C   0  0  0  0  0  0  0  0  0  0  0  0
   -4.9840    1.6470    0.0910 C   0  0  0  0  0  0  0  0  0  0  0  0
   -5.7070    2.7150    0.6240 C   0  0  0  0  0  0  0  0  0  0  0  0
   -5.0680    4.0750    0.7370 C   0  0  0  0  0  0  0  0  0  0  0  0
   -7.0070    2.5260    1.0460 C   0  0  0  0  0  0  0  0  0  0  0  0
   -7.5980    1.2810    0.9450 C   0  0  0  0  0  0  0  0  0  0  0  0
   -6.8860    0.2100    0.4170 C   0  0  0  0  0  0  0  0  0  0  0  0
   -7.4870   -1.0470    0.3170 N   0  0  0  0  0  0  0  0  0  0  0  0
   -8.8680   -1.2360    0.7680 C   0  0  0  0  0  0  0  0  0  0  0  0
   -9.2090   -2.6940    1.1260 C   0  0  0  0  0  0  0  0  0  0  0  0
   -9.6240   -2.8410   -0.2860 N   0  0  0  0  0  0  0  0  0  0  0  0
   -9.8810   -1.3830   -0.3820 C   0  0  0  0  0  0  0  0  0  0  0  0
   -5.5810    0.3910   -0.0160 C   0  0  0  0  0  0  0  0  0  0  0  0
   -3.1100    2.9630   -0.3750 O   0  0  0  0  0  0  0  0  0  0  0  0
   -0.6950   -0.2860   -1.0190 C   0  0  0  0  0  0  0  0  0  0  0  0
   -1.2830   -1.5050   -1.3020 C   0  0  0  0  0  0  0  0  0  0  0  0
   -0.5750   -2.6800   -1.1250 C   0  0  0  0  0  0  0  0  0  0  0  0
    0.7250   -2.6430   -0.6660 C   0  0  0  0  0  0  0  0  0  0  0  0
    1.3260   -1.4160   -0.3780 C   0  0  0  0  0  0  0  0  0  0  0  0
    2.7180   -1.3680    0.1140 C   0  0  0  0  0  0  0  0  0  0  0  0
    3.5070   -2.4410    0.3250 C   0  0  0  0  0  0  0  0  0  0  0  0
    4.7720   -2.1440    0.7880 C   0  0  0  0  0  0  0  0  0  0  0  0
    5.0230   -0.8430    0.9570 C   0  0  0  0  0  0  0  0  0  0  0  0
    6.3250   -0.2680    1.4510 C   0  0  0  0  0  0  0  0  0  0  0  0
    7.2070    0.0010    0.3070 N   0  0  0  0  0  0  0  0  0  0  0  0
    8.4890    0.5630    0.7510 C   0  0  1  0  0  0  0  0  0  0  0  0
    9.5140   -0.5670    1.0190 C   0  0  0  0  0  0  0  0  0  0  0  0
   10.8730    0.1600    0.8660 C   0  0  0  0  0  0  0  0  0  0  0  0
   10.6480    1.1400   -0.3030 C   0  0  1  0  0  0  0  0  0  0  0  0
   11.1060    0.5580   -1.5250 O   0  0  0  0  0  0  0  0  0  0  0  0
    9.1320    1.3970   -0.3770 C   0  0  0  0  0  0  0  0  0  0  0  0
    3.6060    0.0980    0.5090 S   0  0  0  0  0  0  0  0  0  0  0  0
    0.6070   -0.2340   -0.5640 C   0  0  0  0  0  0  0  0  0  0  0  0
   -0.4440    1.5150   -3.0310 H   0  0  0  0  0  0  0  0  0  0  0  0
   -1.9310    0.5680   -3.2760 H   0  0  0  0  0  0  0  0  0  0  0  0
   -2.0350    2.2890   -2.8370 H   0  0  0  0  0  0  0  0  0  0  0  0
   -1.0140    1.7890   -0.6330 H   0  0  0  0  0  0  0  0  0  0  0  0
   -3.2380   -0.1000   -0.7540 H   0  0  0  0  0  0  0  0  0  0  0  0
   -5.1520    4.5970   -0.2170 H   0  0  0  0  0  0  0  0  0  0  0  0
   -5.5730    4.6510    1.5120 H   0  0  0  0  0  0  0  0  0  0  0  0
   -4.0150    3.9620    0.9970 H   0  0  0  0  0  0  0  0  0  0  0  0
   -7.5650    3.3550    1.4580 H   0  0  0  0  0  0  0  0  0  0  0  0
   -8.6150    1.1400    1.2770 H   0  0  0  0  0  0  0  0  0  0  0  0
   -6.9910   -1.7940   -0.0520 H   0  0  0  0  0  0  0  0  0  0  0  0
   -9.1690   -0.5160    1.5280 H   0  0  0  0  0  0  0  0  0  0  0  0
   -8.3390   -3.2950    1.3930 H   0  0  0  0  0  0  0  0  0  0  0  0
  -10.0280   -2.7910    1.8390 H   0  0  0  0  0  0  0  0  0  0  0  0
   -8.8430   -3.1090   -0.8670 H   0  0  0  0  0  0  0  0  0  0  0  0
  -10.8980   -1.0980   -0.1120 H   0  0  0  0  0  0  0  0  0  0  0  0
   -9.5490   -0.9390   -1.3210 H   0  0  0  0  0  0  0  0  0  0  0  0
   -5.0280   -0.4390   -0.4310 H   0  0  0  0  0  0  0  0  0  0  0  0
   -2.3010   -1.5400   -1.6620 H   0  0  0  0  0  0  0  0  0  0  0  0
   -1.0400   -3.6290   -1.3480 H   0  0  0  0  0  0  0  0  0  0  0  0
    1.2770   -3.5600   -0.5280 H   0  0  0  0  0  0  0  0  0  0  0  0
    3.1740   -3.4520    0.1450 H   0  0  0  0  0  0  0  0  0  0  0  0
    5.5060   -2.9080    0.9990 H   0  0  0  0  0  0  0  0  0  0  0  0
    6.1320    0.6620    1.9860 H   0  0  0  0  0  0  0  0  0  0  0  0
    6.8060   -0.9800    2.1210 H   0  0  0  0  0  0  0  0  0  0  0  0
    6.7580    0.6080   -0.3620 H   0  0  0  0  0  0  0  0  0  0  0  0
    8.3490    1.1730    1.6430 H   0  0  0  0  0  0  0  0  0  0  0  0
    9.3980   -0.9620    2.0290 H   0  0  0  0  0  0  0  0  0  0  0  0
    9.4130   -1.3630    0.2810 H   0  0  0  0  0  0  0  0  0  0  0  0
   11.1190    0.7040    1.7780 H   0  0  0  0  0  0  0  0  0  0  0  0
   11.6610   -0.5520    0.6210 H   0  0  0  0  0  0  0  0  0  0  0  0
   11.1760    2.0750   -0.1140 H   0  0  0  0  0  0  0  0  0  0  0  0
   12.0510    0.3520   -1.5330 H   0  0  0  0  0  0  0  0  0  0  0  0
    8.7460    1.0770   -1.3440 H   0  0  0  0  0  0  0  0  0  0  0  0
    8.9250    2.4560   -0.2230 H   0  0  0  0  0  0  0  0  0  0  0  0
    1.0670    0.7190   -0.3470 H   0  0  0  0  0  0  0  0  0  0  0  0
  1  2  1  0  0  0  0
  2  3  1  0  0  0  0
  2 18  1  0  0  0  0
  3  4  1  0  0  0  0
 18 19  2  0  0  0  0
 19 20  1  0  0  0  0
 18 36  1  0  0  0  0
 30 31  1  0  0  0  0
 31 32  1  0  0  0  0
  6  7  1  0  0  0  0
 20 21  2  0  0  0  0
  4  5  1  0  0  0  0
  4 17  2  0  0  0  0
 32 33  1  0  0  0  0
 29 30  1  0  0  0  0
 13 14  1  0  0  0  0
 14 15  1  0  0  0  0
 22 36  2  0  0  0  0
  5  6  2  0  0  0  0
  6  8  1  0  0  0  0
 32 34  1  0  0  0  0
  5 16  1  0  0  0  0
 12 13  1  0  0  0  0
  8  9  2  0  0  0  0
 21 22  1  0  0  0  0
 10 16  2  0  0  0  0
 22 23  1  0  0  0  0
  9 10  1  0  0  0  0
 10 11  1  0  0  0  0
 12 15  1  0  0  0  0
 29 34  1  0  0  0  0
 28 29  1  0  0  0  0
 11 12  1  0  0  0  0
 23 35  1  0  0  0  0
 26 35  1  0  0  0  0
 23 24  2  0  0  0  0
 27 28  1  0  0  0  0
 24 25  1  0  0  0  0
 26 27  1  0  0  0  0
 25 26  2  0  0  0  0
  1 37  1  0  0  0  0
  1 38  1  0  0  0  0
  1 39  1  0  0  0  0
  2 40  1  0  0  0  0
  3 41  1  0  0  0  0
  7 42  1  0  0  0  0
  7 43  1  0  0  0  0
  7 44  1  0  0  0  0
  8 45  1  0  0  0  0
  9 46  1  0  0  0  0
 11 47  1  0  0  0  0
 12 48  1  0  0  0  0
 13 49  1  0  0  0  0
 13 50  1  0  0  0  0
 14 51  1  0  0  0  0
 15 52  1  0  0  0  0
 15 53  1  0  0  0  0
 16 54  1  0  0  0  0
 19 55  1  0  0  0  0
 20 56  1  0  0  0  0
 21 57  1  0  0  0  0
 24 58  1  0  0  0  0
 25 59  1  0  0  0  0
 27 60  1  0  0  0  0
 27 61  1  0  0  0  0
 28 62  1  0  0  0  0
 29 63  1  0  0  0  0
 30 64  1  0  0  0  0
 30 65  1  0  0  0  0
 31 66  1  0  0  0  0
 31 67  1  0  0  0  0
 32 68  1  0  0  0  0
 33 69  1  0  0  0  0
 34 70  1  0  0  0  0
 34 71  1  0  0  0  0
 36 72  1  0  0  0  0
M  END
> <OPENEYE_ISO_SMILES>
Cc1ccc(cc1C(=O)N[C@H](C)c2cccc(c2)c3ccc(s3)CN[C@H]4CC[C@H](C4)O)NC5CNC5

> <OPENEYE_INCHI>
InChI=1S/C29H36N4O2S/c1-18-6-7-23(33-24-15-30-16-24)14-27(18)29(35)32-19(2)20-4-3-5-21(12-20)28-11-10-26(36-28)17-31-22-8-9-25(34)13-22/h3-7,10-12,14,19,22,24-25,30-31,33-34H,8-9,13,15-17H2,1-2H3,(H,32,35)/t19-,22+,25-/m1/s1

> <OPENEYE_INCHIKEY>
IGVYCVBUHQMNRZ-RZTXVSJASA-N

> <FORMULA>
C29H36N4O2S

$$$$
