@<TRIPOS>MOLECULE
/home/pku/3cl/gett_pdb/7MNG/7MNG_mol2/ligand/7MNG_ZL7.pdb
 72 48 0 0 0
SMALL
GASTEIGER

@<TRIPOS>ATOM
      1  C10        1.5740  -32.0310   24.3750 C.3   401  ZL7401      0.0000
      2  C10        1.8460  -32.1990   24.4910 C.3   401  ZL7401      0.0307
      3  C15       10.5430  -32.1350   25.7150 C.ar  401  ZL7401      0.1401
      4  C15       12.3030  -27.8750   22.6260 C.ar  401  ZL7401      0.1401
      5  C20        7.7280  -31.2410   20.2590 C.2   401  ZL7401      0.1134
      6  C20        7.6740  -31.2170   20.1770 C.2   401  ZL7401      0.2794
      7  C21        7.7180  -33.0910   21.8600 C.3   401  ZL7401      0.1518
      8  C21        7.3970  -33.0190   21.8110 C.3   401  ZL7401      0.0000
      9  C22        7.0280  -33.0900   23.1810 C.3   401  ZL7401      0.0000
     10  C22        6.8820  -32.8530   23.2020 C.3   401  ZL7401      0.0000
     11  C11        8.5980  -28.3370   25.9210 C.3   401  ZL7401      0.0293
     12  C11        9.0810  -28.0870   25.4110 C.3   401  ZL7401      0.1387
     13  C12        9.3000  -29.6870   25.8500 C.ar  401  ZL7401      0.0001
     14  C12       10.2420  -28.0000   24.4260 C.ar  401  ZL7401      0.0001
     15  C14       10.6390  -31.2810   24.6650 C.ar  401  ZL7401      0.0296
     16  C14       11.9820  -26.7500   23.3210 C.ar  401  ZL7401      0.0296
     17  C16        9.7420  -31.8730   26.7860 C.ar  401  ZL7401      0.0296
     18  C16       11.6510  -29.0540   22.7780 C.ar  401  ZL7401      0.0296
     19  C18        9.5090  -27.1560   26.2260 C.3   401  ZL7401      0.2182
     20  C18        9.2590  -27.2110   26.6380 C.3   401  ZL7401      0.2302
     21  C19        8.4750  -30.0070   19.8940 C.3   401  ZL7401      0.0000
     22  C19        8.4580  -29.9930   20.0330 C.3   401  ZL7401      0.2175
     23  C23        6.2450  -33.3040   21.9200 C.3   401  ZL7401      0.0000
     24  C23        5.9370  -32.8430   22.0410 C.3   401  ZL7401      0.0000
     25  C1         9.4360  -26.9650   20.4250 C.3   401  ZL7401      0.0000
     26  C1         9.1750  -26.7470   20.8890 C.3   401  ZL7401      0.0000
     27  C2         8.1250  -27.4670   19.8690 C.3   401  ZL7401      0.0000
     28  C2         8.2380  -27.4510   19.9480 C.3   401  ZL7401      0.0000
     29  C3         7.7130  -28.8040   20.4690 C.3   401  ZL7401      0.0000
     30  C3         7.7410  -28.7750   20.5060 C.3   401  ZL7401      0.0000
     31  N1         7.7740  -28.7620   21.9250 N.3   401  ZL7401     -0.0940
     32  N1         7.8230  -28.7540   21.9620 N.3   401  ZL7401      0.0000
     33  C4         6.7640  -29.1980   22.6860 C.3   401  ZL7401      0.2346
     34  C4         6.7350  -28.7700   22.7380 C.3   401  ZL7401      0.2745
     35  O1         5.7470  -29.7070   22.2090 O.3   401  ZL7401     -0.2146
     36  O1         5.5980  -28.8110   22.2700 O.3   401  ZL7401     -0.2005
     37  C5         6.8680  -29.0660   24.2060 C.3   401  ZL7401      0.0000
     38  C5         6.9010  -28.7690   24.2550 C.2   401  ZL7401      0.1133
     39  C6         5.5010  -28.6860   24.7870 C.3   401  ZL7401      0.0000
     40  C6         5.5240  -28.6020   24.9130 C.3   401  ZL7401      0.0000
     41  S1         4.5710  -30.0050   25.5380 S.3   401  ZL7401      0.1370
     42  S1         4.7920  -30.0880   25.5670 S.3   401  ZL7401      0.1370
     43  O2         3.4180  -29.4330   26.1680 O.3   401  ZL7401     -0.0212
     44  O2         3.6840  -29.7100   26.3910 O.3   401  ZL7401     -0.1158
     45  O3         5.4630  -30.7770   26.3500 O.3   401  ZL7401     -0.1158
     46  O3         5.8350  -30.8720   26.1590 O.3   401  ZL7401     -0.0212
     47  C7         4.0080  -31.0430   24.2020 C.2   401  ZL7401     -0.0049
     48  C7         4.1520  -30.9910   24.1680 C.3   401  ZL7401      0.0000
     49  C8         2.5240  -30.9680   23.9260 C.3   401  ZL7401      0.0000
     50  C8         2.6450  -31.0090   24.0680 C.2   401  ZL7401     -0.0258
     51  C9         1.8750  -31.8690   22.9220 C.3   401  ZL7401      0.0000
     52  C9         1.9370  -31.8430   23.0430 C.3   401  ZL7401      0.0000
     53  N2         7.8420  -28.0700   24.6780 N.2   401  ZL7401     -0.2664
     54  N2         7.8200  -27.7240   24.7320 N.3   401  ZL7401      0.0000
     55  C13       10.1160  -30.0090   24.7790 C.ar  401  ZL7401      0.0023
     56  C13       10.9430  -26.8190   24.2250 C.ar  401  ZL7401      0.0023
     57  F1        11.1550  -33.3420   25.6160 F     401  ZL7401     -0.2042
     58  F1        13.3280  -27.8150   21.7420 F     401  ZL7401     -0.2042
     59  C17        9.1200  -30.6360   26.8470 C.ar  401  ZL7401      0.0023
     60  C17       10.6180  -29.1150   23.6900 C.ar  401  ZL7401      0.0023
     61  F2        10.7420  -27.2660   25.7260 F     401  ZL7401      0.0000
     62  F2        10.3580  -26.4460   26.5490 F     401  ZL7401     -0.2321
     63  F3         9.6550  -27.0000   27.5480 F     401  ZL7401      0.0000
     64  F3         9.3720  -27.9430   27.7560 F     401  ZL7401      0.0000
     65  F4         8.9950  -26.0230   25.7280 F     401  ZL7401      0.0000
     66  F4         8.2140  -26.3910   26.7850 F     401  ZL7401     -0.2312
     67  O4         9.7820  -30.0400   20.5130 O.3   401  ZL7401     -0.2175
     68  O4         9.7720  -30.0500   20.5430 O.3   401  ZL7401      0.0000
     69  O5         6.7110  -31.5830   19.6500 O.2   401  ZL7401     -0.2794
     70  O5         6.6720  -31.4540   19.4970 O.3   401  ZL7401      0.0000
     71  N3         8.2320  -31.8690   21.3320 N.3   401  ZL7401      0.0000
     72  N3         8.1230  -31.9580   21.2010 N.2   401  ZL7401     -0.2652
@<TRIPOS>BOND
     1    69     6    2
     2    28    25    1
     3    22    67    1
     4     5    72    2
     5    25    26    1
     6    72     7    1
     7    58     4    1
     8     8    23    1
     9     8     9    1
    10    23    24    1
    11    23     9    1
    12    31    34    1
    13    24    10    1
    14    35    36    1
    15    35    33    1
    16    36    34    1
    17     4    18   ar
    18     4    16   ar
    19    33    34    1
    20    18    60   ar
    21    52    49    1
    22    52     1    1
    23    16    56   ar
    24    60    14   ar
    25    60    55    1
    26    50    47    2
    27    50     2    1
    28    37    39    1
    29    56    14   ar
    30    38    53    2
    31    15    55   ar
    32    15     3   ar
    33    53    12    1
    34    55    13   ar
    35    12    11    1
    36    12    19    1
    37    41    44    1
    38    42    45    1
    39    57     3    1
    40     3    17   ar
    41    13    59   ar
    42    46    45    1
    43    43    44    1
    44    19    62    1
    45    19    20    1
    46    20    66    1
    47    17    59   ar
    48    63    64    1
