USD
  -OEChem-02242320043D

 13 13  0     0  0  0  0  0  0999 V2000
    0.0870   -1.0070    0.0000 N   0  0  0  0  0  0  0  0  0  0  0  0
   -1.7110    1.0020   -0.0000 C   0  0  0  0  0  0  0  0  0  0  0  0
    2.7860   -0.3670   -0.0000 N   0  0  0  0  0  0  0  0  0  0  0  0
    1.9140    0.5850   -0.0000 C   0  0  0  0  0  0  0  0  0  0  0  0
    0.4680    0.2640    0.0000 C   0  0  0  0  0  0  0  0  0  0  0  0
   -0.4140    1.2530    0.0000 N   0  0  0  0  0  0  0  0  0  0  0  0
   -2.1450   -0.3170   -0.0000 C   0  0  0  0  0  0  0  0  0  0  0  0
   -1.1940   -1.3270   -0.0000 C   0  0  0  0  0  0  0  0  0  0  0  0
   -2.4250    1.8120   -0.0000 H   0  0  0  0  0  0  0  0  0  0  0  0
    2.4950   -1.2920    0.0000 H   0  0  0  0  0  0  0  0  0  0  0  0
    2.2380    1.6150   -0.0010 H   0  0  0  0  0  0  0  0  0  0  0  0
   -3.1990   -0.5510    0.0000 H   0  0  0  0  0  0  0  0  0  0  0  0
   -1.4980   -2.3640   -0.0000 H   0  0  0  0  0  0  0  0  0  0  0  0
  3  4  2  0  0  0  0
  4  5  1  0  0  0  0
  5  6  2  0  0  0  0
  1  5  1  0  0  0  0
  2  6  1  0  0  0  0
  1  8  2  0  0  0  0
  2  7  2  0  0  0  0
  7  8  1  0  0  0  0
  2  9  1  0  0  0  0
  3 10  1  0  0  0  0
  4 11  1  0  0  0  0
  7 12  1  0  0  0  0
  8 13  1  0  0  0  0
M  END
> <OPENEYE_ISO_SMILES>
[H]/N=C\c1ncccn1

> <OPENEYE_INCHI>
InChI=1S/C5H5N3/c6-4-5-7-2-1-3-8-5/h1-4,6H/b6-4-

> <OPENEYE_INCHIKEY>
KSQIQMUQPXONCB-XQRVVYSFSA-N

> <FORMULA>
C5H5N3

$$$$
