@<TRIPOS>MOLECULE
/home/pku/3cl/gett_pdb/5RS7/5RS7_mol2/ligand/5RS7_W4Y.pdb
 64 40 0 0 0
SMALL
GASTEIGER

@<TRIPOS>ATOM
      1  C10      -44.6980  -29.3920    5.7960 C.2   201  W4Y201      0.2794
      2  C10      -44.7200  -29.4870    5.7980 C.2   201  W4Y201      0.2794
      3  N12      -43.4130  -29.6070    5.2880 N.3   201  W4Y201      0.0000
      4  N12      -43.4200  -29.6450    5.3220 N.3   201  W4Y201     -0.1629
      5  C13      -43.1660  -29.7300    3.8980 C.3   201  W4Y201      0.1297
      6  C13      -43.1340  -29.6290    3.9530 C.3   201  W4Y201      0.0000
      7  C17      -46.7950  -29.1290    2.8660 C.3   201  W4Y201     -0.0309
      8  C17      -46.7370  -28.8350    2.8560 C.3   201  W4Y201     -0.0309
      9  C01      -45.8210  -25.8370    0.2110 C.3   201  W4Y201     -0.0359
     10  C01      -45.1450  -32.2630    1.9080 C.3   201  W4Y201     -0.0392
     11  C02      -44.5990  -26.7340   -0.1560 C.3   201  W4Y201      0.0882
     12  C02      -45.2950  -31.6550    0.5040 C.3   201  W4Y201      0.0496
     13  C03      -43.2470  -26.1160    0.1120 C.3   201  W4Y201     -0.0359
     14  C03      -46.6920  -31.8500   -0.1100 C.3   201  W4Y201     -0.0392
     15  C05      -43.5180  -28.7440    0.7030 C.3   201  W4Y201     -0.0619
     16  C05      -43.8310  -29.8870    0.4520 C.3   201  W4Y201     -0.0494
     17  C06      -43.9750  -29.9100    1.5230 C.3   201  W4Y201     -0.0351
     18  C06      -43.4820  -29.2260    1.7220 C.3   201  W4Y201     -0.0379
     19  C08      -45.5840  -29.3140    3.4990 C.3   201  W4Y201      0.0000
     20  C08      -45.5370  -29.1200    3.4890 C.3   201  W4Y201      0.0000
     21  C09      -45.8420  -29.2060    4.8330 C.3   201  W4Y201      0.0000
     22  C09      -45.8380  -29.1810    4.8250 C.3   201  W4Y201      0.0000
     23  C16      -47.7580  -28.9240    3.8250 C.3   201  W4Y201     -0.0309
     24  C16      -47.7310  -28.7510    3.8080 C.3   201  W4Y201     -0.0309
     25  N07      -44.2440  -29.6080    2.9550 N.3   201  W4Y201      0.0000
     26  N07      -44.1570  -29.3730    3.0110 N.3   201  W4Y201     -0.1297
     27  N15      -47.1580  -28.9920    4.9920 N.3   201  W4Y201     -0.1629
     28  N15      -47.1590  -28.9790    4.9790 N.3   201  W4Y201      0.0000
     29  O04      -44.6630  -27.9830    0.5060 O.3   201  W4Y201     -0.2317
     30  O04      -45.1200  -30.2740    0.5240 O.3   201  W4Y201     -0.3923
     31  O11      -44.8440  -29.3300    6.9240 O.2   201  W4Y201     -0.2794
     32  O11      -44.8820  -29.5300    6.9210 O.2   201  W4Y201     -0.2794
     33  S14      -41.6680  -30.0220    3.4300 S.3   201  W4Y201      0.0000
     34  S14      -41.6500  -29.9650    3.4390 S.3   201  W4Y201      0.0000
     35 H121      -42.7600  -29.7140    5.8380 H     201  W4Y201      0.1629
     36 H121      -42.7990  -29.8670    5.8740 H     201  W4Y201      0.0000
     37 H171      -46.9470  -29.2070    1.9520 H     201  W4Y201      0.0309
     38 H171      -46.8520  -28.7190    1.9410 H     201  W4Y201      0.0309
     39 H012      -45.8680  -25.0890   -0.4040 H     201  W4Y201      0.0255
     40 H012      -45.4110  -33.1950    1.8870 H     201  W4Y201      0.0254
     41 H013      -45.7150  -25.5040    1.1150 H     201  W4Y201      0.0255
     42 H013      -44.2200  -32.1970    2.1910 H     201  W4Y201      0.0254
     43 H011      -46.6360  -26.3580    0.1480 H     201  W4Y201      0.0255
     44 H011      -45.7090  -31.7800    2.5320 H     201  W4Y201      0.0254
     45 H021      -44.6530  -26.9100   -1.1080 H     201  W4Y201      0.0622
     46 H021      -44.6460  -32.0670   -0.0870 H     201  W4Y201      0.0588
     47 H033      -43.0670  -26.1170    1.0650 H     201  W4Y201      0.0255
     48 H033      -46.8970  -32.7970   -0.1530 H     201  W4Y201      0.0254
     49 H032      -43.2510  -25.2000   -0.2060 H     201  W4Y201      0.0255
     50 H032      -47.3520  -31.4010    0.4400 H     201  W4Y201      0.0254
     51 H031      -42.5540  -26.6080   -0.3560 H     201  W4Y201      0.0255
     52 H031      -46.7070  -31.4750   -1.0040 H     201  W4Y201      0.0254
     53 H051      -42.8410  -28.2700    1.2090 H     201  W4Y201      0.0233
     54 H051      -43.7220  -29.2600   -0.2800 H     201  W4Y201      0.0268
     55 H052      -43.1600  -29.0460   -0.1460 H     201  W4Y201      0.0233
     56 H052      -43.2440  -30.6460    0.3180 H     201  W4Y201      0.0268
     57 H061      -43.3150  -30.6160    1.4580 H     201  W4Y201      0.0306
     58 H061      -43.8240  -28.3420    1.5140 H     201  W4Y201      0.0233
     59 H062      -44.7990  -30.2390    1.1320 H     201  W4Y201      0.2098
     60 H062      -42.5460  -29.0360    1.6920 H     201  W4Y201      0.0304
     61 H161      -48.6650  -28.7840    3.6770 H     201  W4Y201      0.0309
     62 H161      -48.6250  -28.5420    3.6590 H     201  W4Y201      0.0309
     63 H151      -47.5430  -28.8530    5.7480 H     201  W4Y201      0.0000
     64 H151      -47.5630  -28.9420    5.7370 H     201  W4Y201      0.1629
@<TRIPOS>BOND
     1    45    11    1
     2    52    14    1
     3    39     9    1
     4    51    13    1
     5    54    16    1
     6    49    13    1
     7    11    13    1
     8    11     9    1
     9    11    29    1
    10    48    14    1
    11    55    15    1
    12    14    50    1
    13    14    12    1
    14    46    12    1
    15    13    47    1
    16    43     9    1
    17     9    41    1
    18    56    16    1
    19    16    17    1
    20    12    30    1
    21    12    10    1
    22    30    59    1
    23    15    53    1
    24    15    58    1
    25    15    18    1
    26    57    17    1
    27    17    18    1
    28    60    18    1
    29    40    10    1
    30    10    42    1
    31    10    44    1
    32    38     8    1
    33    37     7    1
    34    26     5    1
    35    62    24    1
    36    61    23    1
    37    27    64    1
    38     4    35    1
    39     1    31    2
    40     2    32    2
