YVV
  -OEChem-02242320043D

 90 92  0     1  0  0  0  0  0999 V2000
   -5.3900    3.8450    0.1740 C   0  0  0  0  0  0  0  0  0  0  0  0
   -5.8810    0.2540   -0.7040 C   0  0  0  0  0  0  0  0  0  0  0  0
   -7.1530   -1.6400    0.2660 C   0  0  0  0  0  0  0  0  0  0  0  0
   -8.6210   -3.3860    0.9590 C   0  0  0  0  0  0  0  0  0  0  0  0
   -8.6900   -4.5060    1.9980 C   0  0  0  0  0  0  0  0  0  0  0  0
   -4.9100    5.4430   -1.4410 C   0  0  0  0  0  0  0  0  0  0  0  0
    1.6550   -4.6300   -1.1270 C   0  0  0  0  0  0  0  0  0  0  0  0
    0.7150   -3.0350    0.3910 C   0  0  0  0  0  0  0  0  0  0  0  0
   -0.4170   -3.5540   -1.6540 C   0  0  0  0  0  0  0  0  0  0  0  0
    1.3340   -0.3380   -0.4370 C   0  0  0  0  0  0  0  0  0  0  0  0
   -1.0880   -0.4860   -0.6600 C   0  0  1  0  0  0  0  0  0  0  0  0
   -1.4430   -1.8700   -0.1120 C   0  0  0  0  0  0  0  0  0  0  0  0
   -4.5860    1.0630   -0.6070 C   0  0  2  0  0  0  0  0  0  0  0  0
   -4.6420    2.2360   -1.5880 C   0  0  0  0  0  0  0  0  0  0  0  0
   -5.7390    3.2110   -1.1540 C   0  0  2  0  0  0  0  0  0  0  0  0
   -5.8780   -0.8430    0.3620 C   0  0  0  0  0  0  0  0  0  0  0  0
   -2.2330    0.4610   -0.4110 C   0  0  0  0  0  0  0  0  0  0  0  0
   -5.8200    4.4050   -2.1340 C   0  0  0  0  0  0  0  0  0  0  0  0
    1.7180   -3.9270    0.0620 C   0  0  0  0  0  0  0  0  0  0  0  0
   -0.3520   -2.8470   -0.4680 C   0  0  0  0  0  0  0  0  0  0  0  0
    0.5890   -4.4420   -1.9860 C   0  0  0  0  0  0  0  0  0  0  0  0
    2.5700    0.1750    0.2570 C   0  0  1  0  0  0  0  0  0  0  0  0
    2.5670   -0.2920    1.7140 C   0  0  0  0  0  0  0  0  0  0  0  0
    5.8840    1.4450    3.7710 C   0  0  0  0  0  0  0  0  0  0  0  0
    6.0250    0.2250    3.1380 C   0  0  0  0  0  0  0  0  0  0  0  0
    4.9520   -0.3370    2.4720 C   0  0  0  0  0  0  0  0  0  0  0  0
    3.7370    0.3210    2.4390 C   0  0  0  0  0  0  0  0  0  0  0  0
    3.5960    1.5420    3.0720 C   0  0  0  0  0  0  0  0  0  0  0  0
    4.6670    2.1010    3.7430 C   0  0  0  0  0  0  0  0  0  0  0  0
    4.9270    0.3260   -0.3390 C   0  0  0  0  0  0  0  0  0  0  0  0
    6.1530   -0.2080   -1.0360 C   0  0  0  0  0  0  0  0  0  0  0  0
    7.3320    0.7340   -0.7860 C   0  0  0  0  0  0  0  0  0  0  0  0
    9.6590    1.0370   -1.2760 C   0  0  0  0  0  0  0  0  0  0  0  0
   10.7900    0.4270   -1.9930 C   0  0  0  0  0  0  0  0  0  0  0  0
   11.6920   -0.0600   -2.5650 C   0  0  0  0  0  0  0  0  0  0  0  0
    0.1130    0.0120    0.0150 N   0  0  0  0  0  0  0  0  0  0  0  0
   -3.4470    0.2040   -0.9380 N   0  0  0  0  0  0  0  0  0  0  0  0
   -4.9340    5.0950   -0.0150 N   0  0  0  0  0  0  0  0  0  0  0  0
    3.7610   -0.3440   -0.4200 N   0  0  0  0  0  0  0  0  0  0  0  0
    1.4380   -1.0650   -1.4020 O   0  0  0  0  0  0  0  0  0  0  0  0
   -5.5090    3.3050    1.2540 O   0  0  0  0  0  0  0  0  0  0  0  0
   -7.3710   -2.6620    1.1090 O   0  0  0  0  0  0  0  0  0  0  0  0
   -7.9790   -1.3600   -0.5690 O   0  0  0  0  0  0  0  0  0  0  0  0
   -2.0630    1.4550    0.2630 O   0  0  0  0  0  0  0  0  0  0  0  0
    4.9920    1.3580    0.2940 O   0  0  0  0  0  0  0  0  0  0  0  0
    8.4940    0.2270   -1.4470 O   0  0  0  0  0  0  0  0  0  0  0  0
   -6.7340    0.9130   -0.5450 H   0  0  0  0  0  0  0  0  0  0  0  0
   -5.9520   -0.2000   -1.6920 H   0  0  0  0  0  0  0  0  0  0  0  0
   -8.6740   -3.8150   -0.0420 H   0  0  0  0  0  0  0  0  0  0  0  0
   -9.4570   -2.7010    1.1060 H   0  0  0  0  0  0  0  0  0  0  0  0
   -9.6280   -5.0490    1.8850 H   0  0  0  0  0  0  0  0  0  0  0  0
   -7.8540   -5.1900    1.8510 H   0  0  0  0  0  0  0  0  0  0  0  0
   -8.6370   -4.0770    2.9990 H   0  0  0  0  0  0  0  0  0  0  0  0
   -3.8940    5.3740   -1.8290 H   0  0  0  0  0  0  0  0  0  0  0  0
   -5.3030    6.4490   -1.5910 H   0  0  0  0  0  0  0  0  0  0  0  0
    2.4420   -5.3240   -1.3860 H   0  0  0  0  0  0  0  0  0  0  0  0
    0.7660   -2.4820    1.3170 H   0  0  0  0  0  0  0  0  0  0  0  0
   -1.2500   -3.4070   -2.3250 H   0  0  0  0  0  0  0  0  0  0  0  0
   -0.9000   -0.5570   -1.7310 H   0  0  0  0  0  0  0  0  0  0  0  0
   -1.5430   -1.8170    0.9720 H   0  0  0  0  0  0  0  0  0  0  0  0
   -2.3850   -2.2030   -0.5480 H   0  0  0  0  0  0  0  0  0  0  0  0
   -4.4710    1.4440    0.4080 H   0  0  0  0  0  0  0  0  0  0  0  0
   -3.6810    2.7500   -1.5950 H   0  0  0  0  0  0  0  0  0  0  0  0
   -4.8630    1.8630   -2.5880 H   0  0  0  0  0  0  0  0  0  0  0  0
   -6.7000    2.7000   -1.0920 H   0  0  0  0  0  0  0  0  0  0  0  0
   -5.0240   -1.5020    0.2030 H   0  0  0  0  0  0  0  0  0  0  0  0
   -5.8070   -0.3890    1.3510 H   0  0  0  0  0  0  0  0  0  0  0  0
   -6.8420    4.7740   -2.2150 H   0  0  0  0  0  0  0  0  0  0  0  0
   -5.4260    4.1330   -3.1130 H   0  0  0  0  0  0  0  0  0  0  0  0
    2.5510   -4.0750    0.7330 H   0  0  0  0  0  0  0  0  0  0  0  0
    0.5430   -4.9880   -2.9160 H   0  0  0  0  0  0  0  0  0  0  0  0
    2.5790    1.2640    0.2240 H   0  0  0  0  0  0  0  0  0  0  0  0
    1.6390    0.0190    2.1930 H   0  0  0  0  0  0  0  0  0  0  0  0
    2.6480   -1.3780    1.7470 H   0  0  0  0  0  0  0  0  0  0  0  0
    6.7220    1.8850    4.2910 H   0  0  0  0  0  0  0  0  0  0  0  0
    6.9750   -0.2900    3.1640 H   0  0  0  0  0  0  0  0  0  0  0  0
    5.0630   -1.2910    1.9770 H   0  0  0  0  0  0  0  0  0  0  0  0
    2.6470    2.0560    3.0460 H   0  0  0  0  0  0  0  0  0  0  0  0
    4.5570    3.0550    4.2370 H   0  0  0  0  0  0  0  0  0  0  0  0
    6.3900   -1.1980   -0.6460 H   0  0  0  0  0  0  0  0  0  0  0  0
    5.9620   -0.2750   -2.1070 H   0  0  0  0  0  0  0  0  0  0  0  0
    7.0950    1.7240   -1.1760 H   0  0  0  0  0  0  0  0  0  0  0  0
    7.5230    0.8010    0.2850 H   0  0  0  0  0  0  0  0  0  0  0  0
    9.8980    1.1110   -0.2150 H   0  0  0  0  0  0  0  0  0  0  0  0
    9.4700    2.0340   -1.6760 H   0  0  0  0  0  0  0  0  0  0  0  0
   12.4990   -0.4950   -3.0770 H   0  0  0  0  0  0  0  0  0  0  0  0
    0.0300    0.5940    0.7870 H   0  0  0  0  0  0  0  0  0  0  0  0
   -3.5660   -0.5500   -1.5360 H   0  0  0  0  0  0  0  0  0  0  0  0
   -4.6560    5.6900    0.6980 H   0  0  0  0  0  0  0  0  0  0  0  0
    3.7090   -1.1700   -0.9270 H   0  0  0  0  0  0  0  0  0  0  0  0
  7 19  2  0  0  0  0
  8 19  1  0  0  0  0
  7 21  1  0  0  0  0
  8 20  2  0  0  0  0
  9 21  2  0  0  0  0
  9 20  1  0  0  0  0
 12 20  1  0  0  0  0
 23 27  1  0  0  0  0
 22 23  1  0  0  0  0
 27 28  2  0  0  0  0
 26 27  1  0  0  0  0
 28 29  1  0  0  0  0
 25 26  2  0  0  0  0
 11 12  1  0  0  0  0
 11 36  1  0  0  0  0
 11 17  1  0  0  0  0
 24 29  2  0  0  0  0
 24 25  1  0  0  0  0
 10 36  1  0  0  0  0
 10 40  2  0  0  0  0
 10 22  1  0  0  0  0
 22 39  1  0  0  0  0
 17 37  1  0  0  0  0
 13 37  1  0  0  0  0
 30 39  1  0  0  0  0
 17 44  2  0  0  0  0
  2 13  1  0  0  0  0
  2 16  1  0  0  0  0
  1 41  2  0  0  0  0
 13 14  1  0  0  0  0
 14 15  1  0  0  0  0
  3 16  1  0  0  0  0
 30 31  1  0  0  0  0
 30 45  2  0  0  0  0
  1 15  1  0  0  0  0
 15 18  1  0  0  0  0
  1 38  1  0  0  0  0
  3 43  2  0  0  0  0
  3 42  1  0  0  0  0
 31 32  1  0  0  0  0
 33 34  1  0  0  0  0
 33 46  1  0  0  0  0
 34 35  3  0  0  0  0
  4 42  1  0  0  0  0
 32 46  1  0  0  0  0
  6 18  1  0  0  0  0
  6 38  1  0  0  0  0
  4  5  1  0  0  0  0
  2 47  1  0  0  0  0
  2 48  1  0  0  0  0
  4 49  1  0  0  0  0
  4 50  1  0  0  0  0
  5 51  1  0  0  0  0
  5 52  1  0  0  0  0
  5 53  1  0  0  0  0
  6 54  1  0  0  0  0
  6 55  1  0  0  0  0
  7 56  1  0  0  0  0
  8 57  1  0  0  0  0
  9 58  1  0  0  0  0
 11 59  1  0  0  0  0
 12 60  1  0  0  0  0
 12 61  1  0  0  0  0
 13 62  1  0  0  0  0
 14 63  1  0  0  0  0
 14 64  1  0  0  0  0
 15 65  1  0  0  0  0
 16 66  1  0  0  0  0
 16 67  1  0  0  0  0
 18 68  1  0  0  0  0
 18 69  1  0  0  0  0
 19 70  1  0  0  0  0
 21 71  1  0  0  0  0
 22 72  1  0  0  0  0
 23 73  1  0  0  0  0
 23 74  1  0  0  0  0
 24 75  1  0  0  0  0
 25 76  1  0  0  0  0
 26 77  1  0  0  0  0
 28 78  1  0  0  0  0
 29 79  1  0  0  0  0
 31 80  1  0  0  0  0
 31 81  1  0  0  0  0
 32 82  1  0  0  0  0
 32 83  1  0  0  0  0
 33 84  1  0  0  0  0
 33 85  1  0  0  0  0
 35 86  1  0  0  0  0
 36 87  1  0  0  0  0
 37 88  1  0  0  0  0
 38 89  1  0  0  0  0
 39 90  1  0  0  0  0
M  END
> <OPENEYE_ISO_SMILES>
CCOC(=O)CC[C@H](C[C@@H]1CCNC1=O)NC(=O)[C@H](Cc2ccccc2)NC(=O)[C@@H](Cc3ccccc3)NC(=O)CCOCC#C

> <OPENEYE_INCHI>
InChI=1S/C35H44N4O7/c1-3-20-45-21-18-31(40)38-29(22-25-11-7-5-8-12-25)35(44)39-30(23-26-13-9-6-10-14-26)34(43)37-28(15-16-32(41)46-4-2)24-27-17-19-36-33(27)42/h1,5-14,27-30H,4,15-24H2,2H3,(H,36,42)(H,37,43)(H,38,40)(H,39,44)/t27-,28+,29+,30-/m0/s1

> <OPENEYE_INCHIKEY>
DFVBMNVNJFHZTI-KJHMZRPRSA-N

> <FORMULA>
C35H44N4O7

$$$$
