NOL
  -OEChem-02242320033D

 93 95  0     1  0  0  0  0  0999 V2000
   -7.8670   -1.6240    0.2510 C   0  0  0  0  0  0  0  0  0  0  0  0
   -7.5860   -0.3080   -0.0660 C   0  0  0  0  0  0  0  0  0  0  0  0
   -8.3300    0.7120    0.4970 C   0  0  0  0  0  0  0  0  0  0  0  0
   -9.3520    0.4160    1.3800 C   0  0  0  0  0  0  0  0  0  0  0  0
   -9.6290   -0.9000    1.7010 C   0  0  0  0  0  0  0  0  0  0  0  0
   -8.8850   -1.9190    1.1370 C   0  0  0  0  0  0  0  0  0  0  0  0
   -6.4730    0.0150   -1.0290 C   0  0  0  0  0  0  0  0  0  0  0  0
   -5.2320    0.1870   -0.2940 O   0  0  0  0  0  0  0  0  0  0  0  0
   -4.0950    0.4830   -0.9520 C   0  0  0  0  0  0  0  0  0  0  0  0
   -2.9440    0.6430   -0.2700 N   0  0  0  0  0  0  0  0  0  0  0  0
   -1.7180    1.0170   -0.9800 C   0  0  2  0  0  0  0  0  0  0  0  0
   -0.5460    0.2850   -0.3780 C   0  0  0  0  0  0  0  0  0  0  0  0
    0.5980    0.1530   -1.0780 N   0  0  0  0  0  0  0  0  0  0  0  0
    1.7010   -0.6430   -0.5360 C   0  0  2  0  0  0  0  0  0  0  0  0
    3.0030   -0.1680   -1.1290 C   0  0  0  0  0  0  0  0  0  0  0  0
    4.1610   -0.7580   -0.7730 N   0  0  0  0  0  0  0  0  0  0  0  0
    5.4260   -0.2960   -1.3500 C   0  0  2  0  0  0  0  0  0  0  0  0
    5.6440   -0.9690   -2.7070 C   0  0  0  0  0  0  0  0  0  0  0  0
    5.8050   -2.3760   -2.5210 O   0  0  0  0  0  0  0  0  0  0  0  0
    6.5770   -0.6600   -0.4100 C   0  0  0  0  0  0  0  0  0  0  0  0
    6.4220    0.1040    0.9060 C   0  0  2  0  0  0  0  0  0  0  0  0
    6.5450    1.6270    0.6660 C   0  0  0  0  0  0  0  0  0  0  0  0
    7.2900    2.0870    1.9390 C   0  0  0  0  0  0  0  0  0  0  0  0
    8.0350    0.9110    2.4030 N   0  0  0  0  0  0  0  0  0  0  0  0
    7.5630   -0.2200    1.8450 C   0  0  0  0  0  0  0  0  0  0  0  0
    7.9930   -1.3340    2.0610 O   0  0  0  0  0  0  0  0  0  0  0  0
    3.0080    0.7460   -1.9260 O   0  0  0  0  0  0  0  0  0  0  0  0
    1.4880   -2.1170   -0.8880 C   0  0  0  0  0  0  0  0  0  0  0  0
    0.2320   -2.6330   -0.1840 C   0  0  0  0  0  0  0  0  0  0  0  0
   -0.0510   -4.0680   -0.6330 C   0  0  0  0  0  0  0  0  0  0  0  0
   -1.3080   -4.5840    0.0710 C   0  0  0  0  0  0  0  0  0  0  0  0
   -1.0910   -4.5570    1.5850 C   0  0  0  0  0  0  0  0  0  0  0  0
   -0.8070   -3.1230    2.0350 C   0  0  0  0  0  0  0  0  0  0  0  0
    0.4490   -2.6060    1.3300 C   0  0  0  0  0  0  0  0  0  0  0  0
   -0.6320   -0.1860    0.7360 O   0  0  0  0  0  0  0  0  0  0  0  0
   -1.4960    2.5250   -0.8540 C   0  0  1  0  0  0  0  0  0  0  0  0
   -2.6980    3.2680   -1.4420 C   0  0  0  0  0  0  0  0  0  0  0  0
   -1.3490    2.8720    0.5240 O   0  0  0  0  0  0  0  0  0  0  0  0
   -0.3150    3.8560    0.5940 C   0  0  0  0  0  0  0  0  0  0  0  0
   -0.6820    5.0460   -0.2950 C   0  0  0  0  0  0  0  0  0  0  0  0
   -0.1580    4.3290    2.0410 C   0  0  0  0  0  0  0  0  0  0  0  0
    1.0030    3.2460    0.1110 C   0  0  0  0  0  0  0  0  0  0  0  0
   -4.1080    0.6060   -2.1610 O   0  0  0  0  0  0  0  0  0  0  0  0
   -7.2860   -2.4210   -0.1890 H   0  0  0  0  0  0  0  0  0  0  0  0
   -8.1140    1.7400    0.2470 H   0  0  0  0  0  0  0  0  0  0  0  0
   -9.9330    1.2130    1.8200 H   0  0  0  0  0  0  0  0  0  0  0  0
  -10.4260   -1.1310    2.3910 H   0  0  0  0  0  0  0  0  0  0  0  0
   -9.1020   -2.9470    1.3880 H   0  0  0  0  0  0  0  0  0  0  0  0
   -6.7090    0.9350   -1.5630 H   0  0  0  0  0  0  0  0  0  0  0  0
   -6.3620   -0.8010   -1.7420 H   0  0  0  0  0  0  0  0  0  0  0  0
   -2.9270    0.5100    0.6910 H   0  0  0  0  0  0  0  0  0  0  0  0
   -1.8120    0.7490   -2.0320 H   0  0  0  0  0  0  0  0  0  0  0  0
    0.6900    0.5860   -1.9420 H   0  0  0  0  0  0  0  0  0  0  0  0
    1.7330   -0.5300    0.5480 H   0  0  0  0  0  0  0  0  0  0  0  0
    4.1570   -1.4890   -0.1360 H   0  0  0  0  0  0  0  0  0  0  0  0
    5.3920    0.7850   -1.4810 H   0  0  0  0  0  0  0  0  0  0  0  0
    4.7810   -0.7830   -3.3470 H   0  0  0  0  0  0  0  0  0  0  0  0
    6.5380   -0.5590   -3.1760 H   0  0  0  0  0  0  0  0  0  0  0  0
    5.9390   -2.7610   -3.3980 H   0  0  0  0  0  0  0  0  0  0  0  0
    6.5610   -1.7320   -0.2130 H   0  0  0  0  0  0  0  0  0  0  0  0
    7.5250   -0.3910   -0.8760 H   0  0  0  0  0  0  0  0  0  0  0  0
    5.4650   -0.1320    1.3730 H   0  0  0  0  0  0  0  0  0  0  0  0
    7.1330    1.8340   -0.2270 H   0  0  0  0  0  0  0  0  0  0  0  0
    5.5610    2.0920    0.6010 H   0  0  0  0  0  0  0  0  0  0  0  0
    7.9770    2.8990    1.7010 H   0  0  0  0  0  0  0  0  0  0  0  0
    6.5770    2.4060    2.6990 H   0  0  0  0  0  0  0  0  0  0  0  0
    8.7720    0.9430    3.0330 H   0  0  0  0  0  0  0  0  0  0  0  0
    1.3680   -2.2190   -1.9670 H   0  0  0  0  0  0  0  0  0  0  0  0
    2.3520   -2.6970   -0.5630 H   0  0  0  0  0  0  0  0  0  0  0  0
   -0.6160   -1.9980   -0.4410 H   0  0  0  0  0  0  0  0  0  0  0  0
   -0.2060   -4.0870   -1.7120 H   0  0  0  0  0  0  0  0  0  0  0  0
    0.7960   -4.7030   -0.3770 H   0  0  0  0  0  0  0  0  0  0  0  0
   -2.1550   -3.9490   -0.1860 H   0  0  0  0  0  0  0  0  0  0  0  0
   -1.5090   -5.6060   -0.2490 H   0  0  0  0  0  0  0  0  0  0  0  0
   -1.9860   -4.9250    2.0870 H   0  0  0  0  0  0  0  0  0  0  0  0
   -0.2430   -5.1930    1.8420 H   0  0  0  0  0  0  0  0  0  0  0  0
   -1.6550   -2.4870    1.7780 H   0  0  0  0  0  0  0  0  0  0  0  0
   -0.6530   -3.1040    3.1130 H   0  0  0  0  0  0  0  0  0  0  0  0
    1.2970   -3.2420    1.5870 H   0  0  0  0  0  0  0  0  0  0  0  0
    0.6510   -1.5840    1.6500 H   0  0  0  0  0  0  0  0  0  0  0  0
   -0.5940    2.8060   -1.3980 H   0  0  0  0  0  0  0  0  0  0  0  0
   -2.5300    4.3430   -1.3730 H   0  0  0  0  0  0  0  0  0  0  0  0
   -2.8240    2.9860   -2.4870 H   0  0  0  0  0  0  0  0  0  0  0  0
   -3.5960    3.0040   -0.8830 H   0  0  0  0  0  0  0  0  0  0  0  0
   -1.5910    5.5150    0.0830 H   0  0  0  0  0  0  0  0  0  0  0  0
    0.1320    5.7710   -0.2860 H   0  0  0  0  0  0  0  0  0  0  0  0
   -0.8490    4.7000   -1.3150 H   0  0  0  0  0  0  0  0  0  0  0  0
    0.1030    3.4810    2.6740 H   0  0  0  0  0  0  0  0  0  0  0  0
    0.6300    5.0800    2.0940 H   0  0  0  0  0  0  0  0  0  0  0  0
   -1.0970    4.7630    2.3840 H   0  0  0  0  0  0  0  0  0  0  0  0
    0.9370    3.0370   -0.9560 H   0  0  0  0  0  0  0  0  0  0  0  0
    1.8160    3.9480    0.2940 H   0  0  0  0  0  0  0  0  0  0  0  0
    1.1940    2.3200    0.6520 H   0  0  0  0  0  0  0  0  0  0  0  0
  1  2  1  0  0  0  0
  1  6  2  0  0  0  0
  1 44  1  0  0  0  0
  2  3  2  0  0  0  0
  2  7  1  0  0  0  0
  3  4  1  0  0  0  0
  3 45  1  0  0  0  0
  4  5  2  0  0  0  0
  4 46  1  0  0  0  0
  5  6  1  0  0  0  0
  5 47  1  0  0  0  0
  6 48  1  0  0  0  0
  7  8  1  0  0  0  0
  7 49  1  0  0  0  0
  7 50  1  0  0  0  0
  8  9  1  0  0  0  0
  9 10  1  0  0  0  0
  9 43  2  0  0  0  0
 10 11  1  0  0  0  0
 10 51  1  0  0  0  0
 11 12  1  0  0  0  0
 11 36  1  0  0  0  0
 11 52  1  0  0  0  0
 12 13  1  0  0  0  0
 12 35  2  0  0  0  0
 13 14  1  0  0  0  0
 13 53  1  0  0  0  0
 14 15  1  0  0  0  0
 14 28  1  0  0  0  0
 14 54  1  0  0  0  0
 15 16  1  0  0  0  0
 15 27  2  0  0  0  0
 16 17  1  0  0  0  0
 16 55  1  0  0  0  0
 17 18  1  0  0  0  0
 17 20  1  0  0  0  0
 17 56  1  0  0  0  0
 18 19  1  0  0  0  0
 18 57  1  0  0  0  0
 18 58  1  0  0  0  0
 19 59  1  0  0  0  0
 20 21  1  0  0  0  0
 20 60  1  0  0  0  0
 20 61  1  0  0  0  0
 21 22  1  0  0  0  0
 21 25  1  0  0  0  0
 21 62  1  0  0  0  0
 22 23  1  0  0  0  0
 22 63  1  0  0  0  0
 22 64  1  0  0  0  0
 23 24  1  0  0  0  0
 23 65  1  0  0  0  0
 23 66  1  0  0  0  0
 24 25  1  0  0  0  0
 24 67  1  0  0  0  0
 25 26  2  0  0  0  0
 28 29  1  0  0  0  0
 28 68  1  0  0  0  0
 28 69  1  0  0  0  0
 29 30  1  0  0  0  0
 29 34  1  0  0  0  0
 29 70  1  0  0  0  0
 30 31  1  0  0  0  0
 30 71  1  0  0  0  0
 30 72  1  0  0  0  0
 31 32  1  0  0  0  0
 31 73  1  0  0  0  0
 31 74  1  0  0  0  0
 32 33  1  0  0  0  0
 32 75  1  0  0  0  0
 32 76  1  0  0  0  0
 33 34  1  0  0  0  0
 33 77  1  0  0  0  0
 33 78  1  0  0  0  0
 34 79  1  0  0  0  0
 34 80  1  0  0  0  0
 36 37  1  0  0  0  0
 36 38  1  0  0  0  0
 36 81  1  0  0  0  0
 37 82  1  0  0  0  0
 37 83  1  0  0  0  0
 37 84  1  0  0  0  0
 38 39  1  0  0  0  0
 39 40  1  0  0  0  0
 39 41  1  0  0  0  0
 39 42  1  0  0  0  0
 40 85  1  0  0  0  0
 40 86  1  0  0  0  0
 40 87  1  0  0  0  0
 41 88  1  0  0  0  0
 41 89  1  0  0  0  0
 41 90  1  0  0  0  0
 42 91  1  0  0  0  0
 42 92  1  0  0  0  0
 42 93  1  0  0  0  0
M  END
> <OPENEYE_ISO_SMILES>
C[C@H]([C@@H](C(=O)N[C@@H](CC1CCCCC1)C(=O)N[C@@H](C[C@@H]2CCNC2=O)CO)NC(=O)OCc3ccccc3)OC(C)(C)C

> <OPENEYE_INCHI>
InChI=1S/C32H50N4O7/c1-21(43-32(2,3)4)27(36-31(41)42-20-23-13-9-6-10-14-23)30(40)35-26(17-22-11-7-5-8-12-22)29(39)34-25(19-37)18-24-15-16-33-28(24)38/h6,9-10,13-14,21-22,24-27,37H,5,7-8,11-12,15-20H2,1-4H3,(H,33,38)(H,34,39)(H,35,40)(H,36,41)/t21-,24+,25+,26+,27+/m1/s1

> <OPENEYE_INCHIKEY>
YIWYOEOSWRXENJ-FFXRMZKPSA-N

> <FORMULA>
C32H50N4O7

$$$$
