@<TRIPOS>MOLECULE
/home/pku/3cl/gett_pdb/7UKK/7UKK_mol2/ligand/7UKK_K36.pdb
 29 30 0 0 0
SMALL
GASTEIGER

@<TRIPOS>ATOM
      1  C7       -20.1210    4.0860   14.1120 C.3   401  K36401      0.2368
      2  O8       -20.4790    2.8450   14.7840 O.3   401  K36401     -0.4285
      3  C9       -19.4960    1.9060   14.8520 C.2   401  K36401      0.4218
      4  O10      -18.3720    2.0740   14.3780 O.2   401  K36401     -0.2245
      5  C1       -20.5950    5.2210   14.9750 C.ar  401  K36401      0.0213
      6  C2       -20.9000    5.0080   16.3270 C.ar  401  K36401     -0.0007
      7  C3       -21.3430    6.0630   17.1270 C.ar  401  K36401     -0.0002
      8  C4       -21.4860    7.3410   16.5810 C.ar  401  K36401     -0.0000
      9  C5       -21.1810    7.5620   15.2360 C.ar  401  K36401     -0.0002
     10  C6       -20.7400    6.5060   14.4380 C.ar  401  K36401     -0.0007
     11  N11      -19.9580    0.8080   15.4990 N.am  401  K36401     -0.1611
     12  C12      -19.4000   -0.5380   15.4110 C.3   401  K36401      0.1761
     13  C17      -19.4530   -1.0130   13.9410 C.2   401  K36401      0.2614
     14  O18      -20.5150   -0.9550   13.3090 O.2   401  K36401     -0.2715
     15  C13      -20.0520   -1.6040   16.3160 C.3   401  K36401      0.0312
     16  C14      -20.1650   -1.2500   17.8150 C.3   401  K36401      0.0022
     17  C15      -18.8210   -0.9590   18.4950 C.3   401  K36401      0.0001
     18  C16      -20.8780   -2.3980   18.5480 C.3   401  K36401      0.0001
     19  N19      -18.3320   -1.4800   13.3470 N.am  401  K36401     -0.2030
     20  C20      -18.0960   -2.0010   11.9990 C.3   401  K36401      0.1287
     21  C21      -17.6110   -3.4630   12.0580 C.3   401  K36401      0.2036
     22  O22      -17.5640   -3.9710   10.7440 O.3   401  K36401     -0.2185
     23  C24      -17.0520   -1.1310   11.2690 C.3   401  K36401      0.0335
     24  C25      -17.4950    0.3160   11.0420 C.3   401  K36401      0.0818
     25  C26      -18.6930    0.5300   10.0970 C.3   401  K36401      0.0326
     26  C27      -18.4190    1.8970    9.4420 C.3   401  K36401      0.1156
     27  N28      -16.9600    1.9710    9.4810 N.am  401  K36401     -0.2054
     28  C29      -16.3940    1.1740   10.4140 C.2   401  K36401      0.2410
     29  O30      -15.1920    1.1490   10.7080 O.2   401  K36401     -0.2734
@<TRIPOS>BOND
     1    26    27    1
     2    26    25    1
     3    27    28   am
     4    25    24    1
     5    28    29    2
     6    28    24    1
     7    22    21    1
     8    24    23    1
     9    23    20    1
    10    20    21    1
    11    20    19    1
    12    14    13    2
    13    19    13   am
    14    13    12    1
    15     1     2    1
    16     1     5    1
    17     4     3    2
    18    10     5   ar
    19    10     9   ar
    20     2     3    1
    21     3    11   am
    22     5     6   ar
    23     9     8   ar
    24    12    11    1
    25    12    15    1
    26    15    16    1
    27     6     7   ar
    28     8     7   ar
    29    16    17    1
    30    16    18    1
