DPP
  -OEChem-02242320023D

 15 14  0     1  0  0  0  0  0999 V2000
    0.6690    1.5130   -0.3850 N   0  0  0  0  0  0  0  0  0  0  0  0
    0.2800    0.0990   -0.4710 C   0  0  2  0  0  0  0  0  0  0  0  0
   -1.1470   -0.0580   -0.0130 C   0  0  0  0  0  0  0  0  0  0  0  0
   -1.6590    0.7950    0.6730 O   0  0  0  0  0  0  0  0  0  0  0  0
    1.1970   -0.7380    0.4230 C   0  0  0  0  0  0  0  0  0  0  0  0
    2.5980   -0.4930    0.0540 N   0  0  0  0  0  0  0  0  0  0  0  0
   -1.8500   -1.1450   -0.3670 O   0  0  0  0  0  0  0  0  0  0  0  0
    0.1200    2.0780   -1.0150 H   0  0  0  0  0  0  0  0  0  0  0  0
    0.5940    1.8510    0.5630 H   0  0  0  0  0  0  0  0  0  0  0  0
    0.3700   -0.2410   -1.5030 H   0  0  0  0  0  0  0  0  0  0  0  0
    1.0420   -0.4590    1.4650 H   0  0  0  0  0  0  0  0  0  0  0  0
    0.9670   -1.7950    0.2910 H   0  0  0  0  0  0  0  0  0  0  0  0
    2.8180    0.4910    0.1050 H   0  0  0  0  0  0  0  0  0  0  0  0
    3.2240   -1.0340    0.6300 H   0  0  0  0  0  0  0  0  0  0  0  0
   -2.7620   -1.2020   -0.0500 H   0  0  0  0  0  0  0  0  0  0  0  0
  1  2  1  0  0  0  0
  1  8  1  0  0  0  0
  1  9  1  0  0  0  0
  2  3  1  0  0  0  0
  2  5  1  0  0  0  0
  2 10  1  0  0  0  0
  3  4  2  0  0  0  0
  3  7  1  0  0  0  0
  5  6  1  0  0  0  0
  5 11  1  0  0  0  0
  5 12  1  0  0  0  0
  6 13  1  0  0  0  0
  6 14  1  0  0  0  0
  7 15  1  0  0  0  0
M  END
> <OPENEYE_ISO_SMILES>
C([C@@H](C(=O)O)N)N

> <OPENEYE_INCHI>
InChI=1S/C3H8N2O2/c4-1-2(5)3(6)7/h2H,1,4-5H2,(H,6,7)/t2-/m0/s1

> <OPENEYE_INCHIKEY>
PECYZEOJVXMISF-REOHCLBHSA-N

> <FORMULA>
C3H8N2O2

$$$$
