GVE
  -OEChem-02242320023D

 19 18  0     0  0  0  0  0  0999 V2000
    3.7970    0.3980   -0.0310 N   0  0  0  0  0  0  0  0  0  0  0  0
    2.6780   -0.5530   -0.0080 C   0  0  0  0  0  0  0  0  0  0  0  0
    1.3550    0.2170   -0.0170 C   0  0  0  0  0  0  0  0  0  0  0  0
    0.1890   -0.7730    0.0070 C   0  0  0  0  0  0  0  0  0  0  0  0
   -1.1140   -0.0150   -0.0020 C   0  0  0  0  0  0  0  0  0  0  0  0
   -2.2780   -0.6820    0.0160 O   0  0  0  0  0  0  0  0  0  0  0  0
   -1.1090    1.1930   -0.0240 O   0  0  0  0  0  0  0  0  0  0  0  0
   -3.4930    0.1130    0.0070 C   0  0  0  0  0  0  0  0  0  0  0  0
    3.7360    1.0470    0.7390 H   0  0  0  0  0  0  0  0  0  0  0  0
    4.6830   -0.0870   -0.0260 H   0  0  0  0  0  0  0  0  0  0  0  0
    2.7290   -1.1960   -0.8870 H   0  0  0  0  0  0  0  0  0  0  0  0
    2.7370   -1.1630    0.8930 H   0  0  0  0  0  0  0  0  0  0  0  0
    1.3040    0.8600    0.8620 H   0  0  0  0  0  0  0  0  0  0  0  0
    1.2960    0.8270   -0.9180 H   0  0  0  0  0  0  0  0  0  0  0  0
    0.2410   -1.4160   -0.8720 H   0  0  0  0  0  0  0  0  0  0  0  0
    0.2480   -1.3840    0.9080 H   0  0  0  0  0  0  0  0  0  0  0  0
   -3.5120    0.7580    0.8850 H   0  0  0  0  0  0  0  0  0  0  0  0
   -3.5200    0.7250   -0.8950 H   0  0  0  0  0  0  0  0  0  0  0  0
   -4.3600   -0.5480    0.0230 H   0  0  0  0  0  0  0  0  0  0  0  0
  1  2  1  0  0  0  0
  1  9  1  0  0  0  0
  1 10  1  0  0  0  0
  2  3  1  0  0  0  0
  2 11  1  0  0  0  0
  2 12  1  0  0  0  0
  3  4  1  0  0  0  0
  3 13  1  0  0  0  0
  3 14  1  0  0  0  0
  4  5  1  0  0  0  0
  4 15  1  0  0  0  0
  4 16  1  0  0  0  0
  5  6  1  0  0  0  0
  5  7  2  0  0  0  0
  6  8  1  0  0  0  0
  8 17  1  0  0  0  0
  8 18  1  0  0  0  0
  8 19  1  0  0  0  0
M  END
> <OPENEYE_ISO_SMILES>
COC(=O)CCCN

> <OPENEYE_INCHI>
InChI=1S/C5H11NO2/c1-8-5(7)3-2-4-6/h2-4,6H2,1H3

> <OPENEYE_INCHIKEY>
KVQGGLZHHFGHPU-UHFFFAOYSA-N

> <FORMULA>
C5H11NO2

$$$$
