UB4
  -OEChem-02242320043D

 28 29  0     1  0  0  0  0  0999 V2000
   -4.2800   -0.6180    0.4360 C   0  0  0  0  0  0  0  0  0  0  0  0
   -3.3580    0.0440   -0.5550 C   0  0  2  0  0  0  0  0  0  0  0  0
   -1.9120   -0.0850   -0.0720 C   0  0  0  0  0  0  0  0  0  0  0  0
   -0.9670    0.4760   -1.1360 C   0  0  0  0  0  0  0  0  0  0  0  0
    0.4570    0.3490   -0.6590 C   0  0  0  0  0  0  0  0  0  0  0  0
    3.4760   -1.6150   -0.4840 C   0  0  0  0  0  0  0  0  0  0  0  0
    3.9780    0.7540    0.8690 C   0  0  0  0  0  0  0  0  0  0  0  0
    2.7280    0.5450    0.2930 C   0  0  0  0  0  0  0  0  0  0  0  0
    2.4570   -0.6450   -0.3930 C   0  0  0  0  0  0  0  0  0  0  0  0
    4.6930   -1.3930    0.0860 C   0  0  0  0  0  0  0  0  0  0  0  0
    4.9540   -0.2120    0.7650 C   0  0  0  0  0  0  0  0  0  0  0  0
    1.2020   -0.6680   -0.8790 N   0  0  0  0  0  0  0  0  0  0  0  0
   -3.7090    1.4650   -0.6770 N   0  0  0  0  0  0  0  0  0  0  0  0
   -4.8880    0.0520    1.2370 O   0  0  0  0  0  0  0  0  0  0  0  0
    1.2810    1.5470    0.2340 S   0  0  0  0  0  0  0  0  0  0  0  0
   -3.4610   -0.4400   -1.5260 H   0  0  0  0  0  0  0  0  0  0  0  0
   -1.7880    0.4740    0.8560 H   0  0  0  0  0  0  0  0  0  0  0  0
   -1.6800   -1.1350    0.1040 H   0  0  0  0  0  0  0  0  0  0  0  0
   -1.0910   -0.0830   -2.0630 H   0  0  0  0  0  0  0  0  0  0  0  0
   -1.1990    1.5260   -1.3110 H   0  0  0  0  0  0  0  0  0  0  0  0
    3.2890   -2.5410   -1.0080 H   0  0  0  0  0  0  0  0  0  0  0  0
    4.1830    1.6740    1.3970 H   0  0  0  0  0  0  0  0  0  0  0  0
    5.4640   -2.1450    0.0080 H   0  0  0  0  0  0  0  0  0  0  0  0
    5.9240   -0.0490    1.2120 H   0  0  0  0  0  0  0  0  0  0  0  0
   -4.6370    1.5770   -1.0560 H   0  0  0  0  0  0  0  0  0  0  0  0
   -3.6220    1.9360    0.2110 H   0  0  0  0  0  0  0  0  0  0  0  0
   -4.4310   -1.9520    0.4250 O   0  0  0  0  0  0  0  0  0  0  0  0
   -5.0330   -2.3310    1.0800 H   0  0  0  0  0  0  0  0  0  0  0  0
 10 11  2  0  0  0  0
  7 11  1  0  0  0  0
  6 10  1  0  0  0  0
  7  8  2  0  0  0  0
  6  9  2  0  0  0  0
  8  9  1  0  0  0  0
  8 15  1  0  0  0  0
  9 12  1  0  0  0  0
  2 13  1  0  0  0  0
  5 15  1  0  0  0  0
  5 12  2  0  0  0  0
  4  5  1  0  0  0  0
  1  2  1  0  0  0  0
  2  3  1  0  0  0  0
  1 14  2  0  0  0  0
  3  4  1  0  0  0  0
  2 16  1  0  0  0  0
  3 17  1  0  0  0  0
  3 18  1  0  0  0  0
  4 19  1  0  0  0  0
  4 20  1  0  0  0  0
  6 21  1  0  0  0  0
  7 22  1  0  0  0  0
 10 23  1  0  0  0  0
 11 24  1  0  0  0  0
 13 25  1  0  0  0  0
 13 26  1  0  0  0  0
  1 27  1  0  0  0  0
 27 28  1  0  0  0  0
M  END
> <OPENEYE_ISO_SMILES>
c1ccc2c(c1)nc(s2)CC[C@@H](C(=O)O)N

> <OPENEYE_INCHI>
InChI=1S/C11H12N2O2S/c12-7(11(14)15)5-6-10-13-8-3-1-2-4-9(8)16-10/h1-4,7H,5-6,12H2,(H,14,15)/t7-/m0/s1

> <OPENEYE_INCHIKEY>
QGQYYZFCDVMFIU-ZETCQYMHSA-N

> <FORMULA>
C11H12N2O2S

$$$$
