@<TRIPOS>MOLECULE
/home/pku/3cl/gett_pdb/7VLO/7VLO_mol2/ligand/7VLO_4WI.pdb
 35 37 0 0 0
SMALL
GASTEIGER

@<TRIPOS>ATOM
      1  C8        60.6800  -36.1280    1.1680 C.2   401  4WI401      0.2410
      2  C3        63.0560  -32.7390    3.9170 C.2   401  4WI401      0.1171
      3  C1        64.5110  -32.9510    0.7130 C.2   401  4WI401      0.2597
      4  C13       64.9130  -34.5500   -1.8970 C.2   401  4WI401      0.2458
      5  C21       66.5520  -36.1280   -4.4710 C.2   401  4WI401      0.3371
      6  C6        60.6900  -33.8580    0.2460 C.3   401  4WI401      0.0326
      7  C7        59.6970  -34.3770   -0.3980 C.3   401  4WI401      0.1156
      8  C10       66.4790  -32.4950   -2.0350 C.3   401  4WI401      0.0939
      9  C5        61.5070  -35.0980    1.1150 C.3   401  4WI401      0.0821
     10  C9        65.8490  -33.3240    0.0700 C.3   401  4WI401      0.1535
     11  C11       67.5370  -32.0770   -1.0470 C.3   401  4WI401      0.0220
     12  C12       67.1890  -32.6720    0.2860 C.3   401  4WI401      0.0289
     13  C18       68.5900  -32.7620   -0.2420 C.3   401  4WI401      0.0037
     14  C19       69.6540  -31.8640    0.4390 C.3   401  4WI401      0.0001
     15  C20       68.9950  -34.1180   -0.8740 C.3   401  4WI401      0.0001
     16  C16       63.3930  -34.2960   -5.4790 C.3   401  4WI401      0.0022
     17  C17       63.1040  -32.8270   -3.4470 C.3   401  4WI401      0.0022
     18  C23       62.3200  -35.2150   -3.3660 C.3   401  4WI401      0.0022
     19  C4        61.8930  -34.5240    2.5200 C.3   401  4WI401      0.0371
     20  C2        62.7950  -33.2540    2.5040 C.3   401  4WI401      0.1386
     21  C14       64.8520  -34.6250   -3.4250 C.3   401  4WI401      0.1714
     22  C22       67.0180  -37.5500   -4.8040 C.3   401  4WI401      0.4711
     23  C15       63.4270  -34.2660   -3.9270 C.3   401  4WI401      0.0269
     24  N5        62.2440  -31.9470    4.4780 N.2   401  4WI401     -0.1496
     25  N2        59.4120  -35.8160    0.2230 N.am  401  4WI401     -0.2054
     26  N3        65.7560  -33.4910   -1.3200 N.am  401  4WI401     -0.2716
     27  N1        64.0850  -33.6110    1.9500 N.am  401  4WI401     -0.1996
     28  N4        65.2910  -35.9520   -3.7640 N.am  401  4WI401     -0.1908
     29  O1        60.7950  -37.1420    1.7750 O.2   401  4WI401     -0.2734
     30  O2        63.8260  -32.1640    0.1470 O.2   401  4WI401     -0.2715
     31  O3        64.3220  -35.3310   -1.1770 O.2   401  4WI401     -0.2730
     32  O4        67.2060  -35.1790   -4.7860 O.2   401  4WI401     -0.2642
     33  F1        68.3800  -37.6300   -4.6880 F     401  4WI401     -0.1620
     34  F2        66.4560  -38.4220   -3.9350 F     401  4WI401     -0.1620
     35  F3        66.6550  -37.8750   -6.0720 F     401  4WI401     -0.1620
@<TRIPOS>BOND
     1    35    22    1
     2    16    23    1
     3    22    33    1
     4    22     5    1
     5    22    34    1
     6    32     5    2
     7     5    28   am
     8    23    17    1
     9    23    21    1
    10    23    18    1
    11    28    21    1
    12    21     4    1
    13     8    26    1
    14     8    11    1
    15     4    26   am
    16     4    31    2
    17    26    10    1
    18    11    13    1
    19    11    12    1
    20    15    13    1
    21     7    25    1
    22     7     6    1
    23    13    12    1
    24    13    14    1
    25    10    12    1
    26    10     3    1
    27    30     3    2
    28    25     1   am
    29     6     9    1
    30     3    27   am
    31     9     1    1
    32     9    19    1
    33     1    29    2
    34    27    20    1
    35    20    19    1
    36    20     2    1
    37     2    24    2
