JGP
  -OEChem-02242320033D

 35 37  0     0  0  0  0  0  0999 V2000
    1.7480    1.3230   -0.5060 C   0  0  0  0  0  0  0  0  0  0  0  0
    4.3400    0.1600    1.1360 C   0  0  0  0  0  0  0  0  0  0  0  0
    3.2720   -0.6950   -0.9300 C   0  0  0  0  0  0  0  0  0  0  0  0
   -4.8760   -0.2260    0.6120 C   0  0  0  0  0  0  0  0  0  0  0  0
   -0.8160    0.7440   -1.2070 C   0  0  0  0  0  0  0  0  0  0  0  0
   -2.0880    1.2610   -1.0900 C   0  0  0  0  0  0  0  0  0  0  0  0
   -3.0160    0.6520   -0.2560 C   0  0  0  0  0  0  0  0  0  0  0  0
   -2.6630   -0.4880    0.4680 C   0  0  0  0  0  0  0  0  0  0  0  0
   -1.3900   -1.0110    0.3540 C   0  0  0  0  0  0  0  0  0  0  0  0
   -0.4570   -0.3970   -0.4860 C   0  0  0  0  0  0  0  0  0  0  0  0
    0.9050   -0.9530   -0.6100 C   0  0  0  0  0  0  0  0  0  0  0  0
    1.0690   -2.1570   -0.6470 O   0  0  0  0  0  0  0  0  0  0  0  0
    1.9660   -0.1260   -0.6830 N   0  0  0  0  0  0  0  0  0  0  0  0
    2.8350    1.9710    0.3710 C   0  0  0  0  0  0  0  0  0  0  0  0
    3.1760    1.0640    1.5280 C   0  0  0  0  0  0  0  0  0  0  0  0
    3.9440   -1.0600    0.4160 C   0  0  0  0  0  0  0  0  0  0  0  0
   -3.7420   -0.8870    1.2030 O   0  0  0  0  0  0  0  0  0  0  0  0
   -4.3130    0.9640    0.0280 O   0  0  0  0  0  0  0  0  0  0  0  0
    1.7500    1.8030   -1.4840 H   0  0  0  0  0  0  0  0  0  0  0  0
    0.7760    1.4800   -0.0370 H   0  0  0  0  0  0  0  0  0  0  0  0
    5.0230    0.7290    0.5050 H   0  0  0  0  0  0  0  0  0  0  0  0
    4.8710   -0.1330    2.0420 H   0  0  0  0  0  0  0  0  0  0  0  0
    3.1680   -1.5930   -1.5390 H   0  0  0  0  0  0  0  0  0  0  0  0
    3.8900    0.0310   -1.4590 H   0  0  0  0  0  0  0  0  0  0  0  0
   -5.3270   -0.8530   -0.1570 H   0  0  0  0  0  0  0  0  0  0  0  0
   -5.6110    0.0330    1.3730 H   0  0  0  0  0  0  0  0  0  0  0  0
   -0.0970    1.2200   -1.8570 H   0  0  0  0  0  0  0  0  0  0  0  0
   -2.3640    2.1430   -1.6490 H   0  0  0  0  0  0  0  0  0  0  0  0
   -1.1160   -1.8930    0.9140 H   0  0  0  0  0  0  0  0  0  0  0  0
    3.7280    2.1430   -0.2280 H   0  0  0  0  0  0  0  0  0  0  0  0
    2.4700    2.9240    0.7540 H   0  0  0  0  0  0  0  0  0  0  0  0
    2.3090    0.4520    1.7790 H   0  0  0  0  0  0  0  0  0  0  0  0
    3.4580    1.6670    2.3920 H   0  0  0  0  0  0  0  0  0  0  0  0
    4.8280   -1.6690    0.2240 H   0  0  0  0  0  0  0  0  0  0  0  0
    3.2430   -1.6280    1.0270 H   0  0  0  0  0  0  0  0  0  0  0  0
  3 16  1  0  0  0  0
  2 16  1  0  0  0  0
  3 13  1  0  0  0  0
  1 14  1  0  0  0  0
 14 15  1  0  0  0  0
  2 15  1  0  0  0  0
  1 13  1  0  0  0  0
 11 13  1  0  0  0  0
  8 17  1  0  0  0  0
  4 17  1  0  0  0  0
  8  9  2  0  0  0  0
  9 10  1  0  0  0  0
 10 11  1  0  0  0  0
 11 12  2  0  0  0  0
  7  8  1  0  0  0  0
  5 10  2  0  0  0  0
  4 18  1  0  0  0  0
  7 18  1  0  0  0  0
  6  7  2  0  0  0  0
  5  6  1  0  0  0  0
  1 19  1  0  0  0  0
  1 20  1  0  0  0  0
  2 21  1  0  0  0  0
  2 22  1  0  0  0  0
  3 23  1  0  0  0  0
  3 24  1  0  0  0  0
  4 25  1  0  0  0  0
  4 26  1  0  0  0  0
  5 27  1  0  0  0  0
  6 28  1  0  0  0  0
  9 29  1  0  0  0  0
 14 30  1  0  0  0  0
 14 31  1  0  0  0  0
 15 32  1  0  0  0  0
 15 33  1  0  0  0  0
 16 34  1  0  0  0  0
 16 35  1  0  0  0  0
M  END
> <OPENEYE_ISO_SMILES>
c1cc2c(cc1C(=O)N3CCCCCC3)OCO2

> <OPENEYE_INCHI>
InChI=1S/C14H17NO3/c16-14(15-7-3-1-2-4-8-15)11-5-6-12-13(9-11)18-10-17-12/h5-6,9H,1-4,7-8,10H2

> <OPENEYE_INCHIKEY>
ABPXISKFLMGPJG-UHFFFAOYSA-N

> <FORMULA>
C14H17NO3

$$$$
