@<TRIPOS>MOLECULE
/home/pku/3cl/gett_pdb/5RSV/5RSV_mol2/ligand/5RSV_4MB.pdb
 22 22 0 0 0
SMALL
GASTEIGER

@<TRIPOS>ATOM
      1  C3       -47.4700  -29.4350    5.7370 C.ar  201  4MB201     -0.0387
      2  C5       -46.8860  -29.4280    3.4640 C.ar  201  4MB201      0.0073
      3  N1       -49.6730  -28.5960    6.4490 N.pl3 201  4MB201     -0.2209
      4  C2       -48.6940  -28.8830    5.4140 C.ar  201  4MB201      0.0477
      5  C4       -46.5740  -29.6790    4.7570 C.ar  201  4MB201     -0.0503
      6  C6       -45.8870  -29.8080    2.3700 C.2   201  4MB201      0.1186
      7  C9       -48.1090  -28.9160    3.1230 C.ar  201  4MB201     -0.0503
      8  C12      -50.6820  -31.2580    6.7500 C.3   201  4MB201      0.0736
      9  C10      -49.0190  -28.5980    4.1030 C.ar  201  4MB201     -0.0387
     10  O7       -46.2170  -29.6820    1.1800 O.co2 201  4MB201     -0.8441
     11  O8       -44.8070  -30.3360    2.6210 O.co2 201  4MB201     -0.3036
     12  S11      -51.0790  -29.5060    6.4380 S.O2  201  4MB201      0.0403
     13  O14      -51.8930  -29.0490    7.5350 O.2   201  4MB201     -0.1555
     14  O13      -51.6660  -29.3620    5.1720 O.2   201  4MB201     -0.1555
     15  H3       -47.2500  -29.6020    6.6250 H     201  4MB201      0.0637
     16  HN1      -49.5370  -27.9870    7.0400 H     201  4MB201      0.1733
     17  H4       -45.7560  -30.0700    4.9670 H     201  4MB201      0.0625
     18  H9       -48.3080  -28.7430    2.2310 H     201  4MB201      0.0625
     19 H121      -50.1480  -31.3290    7.5560 H     201  4MB201      0.0482
     20 H122      -51.5030  -31.7600    6.8650 H     201  4MB201      0.0482
     21 H123      -50.1850  -31.6170    5.9980 H     201  4MB201      0.0482
     22  H10      -49.8540  -28.2520    3.8840 H     201  4MB201      0.0637
@<TRIPOS>UNITY_ATOM_ATTR
10 1
charge -1
@<TRIPOS>BOND
     1    10     6   ar
     2    18     7    1
     3     6    11   ar
     4     6     2    1
     5     7     2   ar
     6     7     9   ar
     7     2     5   ar
     8    22     9    1
     9     9     4   ar
    10     5    17    1
    11     5     1   ar
    12    14    12    2
    13     4     1   ar
    14     4     3    1
    15     1    15    1
    16    21     8    1
    17    12     3    1
    18    12     8    1
    19    12    13    2
    20     3    16    1
    21     8    20    1
    22     8    19    1
