@<TRIPOS>MOLECULE
/home/pku/3cl/gett_pdb/5RVA/5RVA_mol2/ligand/5RVA_HQD.pdb
 22 23 0 0 0
SMALL
GASTEIGER

@<TRIPOS>ATOM
      1  N1       -49.9840  -29.1840    7.9530 N.ar  201  HQD201     -0.3551
      2  C2       -51.3980  -29.4610    7.7990 C.ar  201  HQD201      0.0591
      3  C3       -51.9870  -29.5570    6.4450 C.ar  201  HQD201      0.1835
      4  C4       -51.1430  -29.3820    5.2460 C.ar  201  HQD201      0.2308
      5  C5       -48.8100  -28.9280    4.3240 C.ar  201  HQD201     -0.0488
      6  C6       -47.4540  -28.6700    4.5280 C.ar  201  HQD201     -0.0610
      7  C7       -46.9200  -28.5890    5.8400 C.ar  201  HQD201     -0.0598
      8  C8       -47.7530  -28.7600    6.9480 C.ar  201  HQD201     -0.0377
      9  C9       -49.1130  -29.0100    6.7460 C.ar  201  HQD201      0.0505
     10  C10      -49.6550  -29.0900    5.4390 C.ar  201  HQD201      0.0487
     11  C        -52.2530  -29.6370    9.0400 C.3   201  HQD201     -0.0208
     12  O3       -53.3530  -29.8160    6.3200 O.3   201  HQD201     -0.5020
     13  O13      -51.5930  -29.4450    4.1520 O.2   201  HQD201     -0.2833
     14  HC1      -52.7260  -30.4820    8.9890 H     201  HQD201      0.0293
     15  HC2      -52.8940  -28.9110    9.0970 H     201  HQD201      0.0293
     16  HC3      -51.6860  -29.6300    9.8270 H     201  HQD201      0.0293
     17  H3       -53.6350  -29.5000    5.5830 H     201  HQD201      0.2924
     18  H5       -49.1530  -28.9770    3.4630 H     201  HQD201      0.0625
     19  H6       -46.8930  -28.5540    3.7950 H     201  HQD201      0.0618
     20  H7       -46.0150  -28.4140    5.9630 H     201  HQD201      0.0618
     21  H8       -47.4080  -28.7020    7.8100 H     201  HQD201      0.0638
     22  H1N      -49.6400  -29.1370    8.7400 H     201  HQD201      0.1657
@<TRIPOS>BOND
     1    18     5    1
     2    19     6    1
     3    13     4    2
     4     5     6   ar
     5     5    10   ar
     6     6     7   ar
     7     4    10   ar
     8     4     3   ar
     9    10     9   ar
    10    17    12    1
    11     7    20    1
    12     7     8   ar
    13    12     3    1
    14     3     2   ar
    15     9     8   ar
    16     9     1   ar
    17     8    21    1
    18     2     1   ar
    19     2    11    1
    20     1    22    1
    21    14    11    1
    22    11    15    1
    23    11    16    1
