80X
  -OEChem-02242320013D

 37 38  0     1  0  0  0  0  0999 V2000
   -2.7470    0.4300    0.6940 N   0  0  0  0  0  0  0  0  0  0  0  0
    1.0250    0.3520   -1.5140 N   0  0  0  0  0  0  0  0  0  0  0  0
   -3.4570   -1.4390   -0.6700 C   0  0  0  0  0  0  0  0  0  0  0  0
   -1.3600   -0.2350   -1.2150 C   0  0  0  0  0  0  0  0  0  0  0  0
    0.0370   -0.0400   -0.6840 C   0  0  0  0  0  0  0  0  0  0  0  0
    2.3410    0.4300   -1.0460 C   0  0  0  0  0  0  0  0  0  0  0  0
    3.1910    1.4200   -1.5230 C   0  0  0  0  0  0  0  0  0  0  0  0
    4.9460    0.5870   -0.1230 C   0  0  0  0  0  0  0  0  0  0  0  0
   -2.1340    1.6280    0.6220 C   0  0  0  0  0  0  0  0  0  0  0  0
   -2.2700   -0.7220   -0.0860 C   0  0  1  0  0  0  0  0  0  0  0  0
    4.1000   -0.3970    0.3590 C   0  0  0  0  0  0  0  0  0  0  0  0
    2.7990   -0.4770   -0.1010 C   0  0  0  0  0  0  0  0  0  0  0  0
   -2.7190    2.8180    1.3370 C   0  0  0  0  0  0  0  0  0  0  0  0
   -3.9180    0.2190    1.5620 C   0  0  0  0  0  0  0  0  0  0  0  0
   -5.1020   -0.1790    0.6790 C   0  0  0  0  0  0  0  0  0  0  0  0
    4.4900    1.4950   -1.0610 C   0  0  0  0  0  0  0  0  0  0  0  0
   -4.7110   -1.2090   -0.2740 N   0  0  0  0  0  0  0  0  0  0  0  0
   -3.2640   -2.2710   -1.5310 O   0  0  0  0  0  0  0  0  0  0  0  0
    0.2730   -0.2350    0.4900 O   0  0  0  0  0  0  0  0  0  0  0  0
   -1.1100    1.7470   -0.0180 O   0  0  0  0  0  0  0  0  0  0  0  0
    4.6740   -1.5310    1.5410 Cl  0  0  0  0  0  0  0  0  0  0  0  0
    0.8220    0.5790   -2.4350 H   0  0  0  0  0  0  0  0  0  0  0  0
   -1.7370    0.7110   -1.6030 H   0  0  0  0  0  0  0  0  0  0  0  0
   -1.3440   -0.9750   -2.0140 H   0  0  0  0  0  0  0  0  0  0  0  0
    2.8360    2.1300   -2.2560 H   0  0  0  0  0  0  0  0  0  0  0  0
    5.9620    0.6480    0.2370 H   0  0  0  0  0  0  0  0  0  0  0  0
   -1.7180   -1.4000    0.5650 H   0  0  0  0  0  0  0  0  0  0  0  0
    2.1390   -1.2450    0.2760 H   0  0  0  0  0  0  0  0  0  0  0  0
   -3.5790    2.5010    1.9270 H   0  0  0  0  0  0  0  0  0  0  0  0
   -1.9670    3.2530    1.9950 H   0  0  0  0  0  0  0  0  0  0  0  0
   -3.0350    3.5620    0.6050 H   0  0  0  0  0  0  0  0  0  0  0  0
   -3.7080   -0.5760    2.2770 H   0  0  0  0  0  0  0  0  0  0  0  0
   -4.1500    1.1410    2.0960 H   0  0  0  0  0  0  0  0  0  0  0  0
   -5.9070   -0.5600    1.3080 H   0  0  0  0  0  0  0  0  0  0  0  0
   -5.4550    0.6970    0.1360 H   0  0  0  0  0  0  0  0  0  0  0  0
    5.1510    2.2650   -1.4320 H   0  0  0  0  0  0  0  0  0  0  0  0
   -5.4120   -1.7630   -0.6520 H   0  0  0  0  0  0  0  0  0  0  0  0
  9 20  2  0  0  0  0
 14 15  1  0  0  0  0
 15 17  1  0  0  0  0
  1 14  1  0  0  0  0
  1  9  1  0  0  0  0
  9 13  1  0  0  0  0
  1 10  1  0  0  0  0
  3 17  1  0  0  0  0
  3 10  1  0  0  0  0
  4 10  1  0  0  0  0
  3 18  2  0  0  0  0
  4  5  1  0  0  0  0
  5 19  2  0  0  0  0
  2  5  1  0  0  0  0
  2  6  1  0  0  0  0
  6 12  2  0  0  0  0
  6  7  1  0  0  0  0
 11 12  1  0  0  0  0
  7 16  2  0  0  0  0
  8 11  2  0  0  0  0
 11 21  1  0  0  0  0
  8 16  1  0  0  0  0
  2 22  1  0  0  0  0
  4 23  1  0  0  0  0
  4 24  1  0  0  0  0
  7 25  1  0  0  0  0
  8 26  1  0  0  0  0
 10 27  1  0  0  0  0
 12 28  1  0  0  0  0
 13 29  1  0  0  0  0
 13 30  1  0  0  0  0
 13 31  1  0  0  0  0
 14 32  1  0  0  0  0
 14 33  1  0  0  0  0
 15 34  1  0  0  0  0
 15 35  1  0  0  0  0
 16 36  1  0  0  0  0
 17 37  1  0  0  0  0
M  END
> <OPENEYE_ISO_SMILES>
CC(=O)N1CCNC(=O)[C@H]1CC(=O)Nc2cccc(c2)Cl

> <OPENEYE_INCHI>
InChI=1S/C14H16ClN3O3/c1-9(19)18-6-5-16-14(21)12(18)8-13(20)17-11-4-2-3-10(15)7-11/h2-4,7,12H,5-6,8H2,1H3,(H,16,21)(H,17,20)/t12-/m1/s1

> <OPENEYE_INCHIKEY>
VFCHONURCHBPEO-GFCCVEGCSA-N

> <FORMULA>
C14H16ClN3O3

$$$$
