@<TRIPOS>MOLECULE
/home/pku/3cl/gett_pdb/5SPA/5SPA_mol2/ligand/5SPA_RY6.pdb
 42 44 0 0 0
SMALL
GASTEIGER

@<TRIPOS>ATOM
      1  C16      -44.3990  -31.4420    0.2410 C.ar  201  RY6201     -0.0003
      2  C17      -43.9650  -32.5410   -0.4620 C.ar  201  RY6201      0.1204
      3  C15      -43.6560  -30.1350    0.5070 C.3   201  RY6201     -0.0132
      4  C12      -43.7500  -29.8740    2.9980 C.2   201  RY6201      0.0926
      5  C11      -44.3860  -29.5250    1.6610 C.3   201  RY6201      0.0343
      6  C10      -45.7810  -30.0330    1.4980 C.3   201  RY6201      0.0580
      7  C20      -46.0460  -33.6530    0.0130 C.ar  201  RY6201     -0.0580
      8  C19      -44.7910  -33.6500   -0.5790 C.ar  201  RY6201     -0.0199
      9  C02      -51.8110  -29.0570    7.9440 C.2   201  RY6201      0.3013
     10  C04      -49.7720  -29.0470    6.4280 C.ar  201  RY6201      0.0348
     11  C05      -48.3900  -29.1260    6.4200 C.ar  201  RY6201     -0.0397
     12  C06      -47.7100  -29.1710    5.2200 C.ar  201  RY6201     -0.0479
     13  C07      -48.4440  -29.1260    4.0450 C.ar  201  RY6201      0.0368
     14  C08      -47.7540  -29.2300    2.7100 C.2   201  RY6201      0.2445
     15  C21      -46.4740  -32.5420    0.7240 C.ar  201  RY6201     -0.0563
     16  C22      -45.6340  -31.4320    0.8570 C.ar  201  RY6201     -0.0199
     17  C24      -49.8200  -29.0840    4.0430 C.ar  201  RY6201     -0.0479
     18  C25      -50.4970  -29.0440    5.2430 C.ar  201  RY6201     -0.0397
     19  N01      -52.1940  -29.1100    9.3260 N.am  201  RY6201     -0.3131
     20  N03      -50.3890  -29.0510    7.7290 N.am  201  RY6201     -0.2696
     21  N09      -46.4650  -29.8740    2.7350 N.am  201  RY6201     -0.3039
     22  O13      -43.8230  -31.0370    3.4850 O.co2 201  RY6201     -0.8473
     23  O14      -43.1520  -28.9480    3.6030 O.co2 201  RY6201     -0.3086
     24  O18      -42.6920  -32.4530   -1.0350 O.3   201  RY6201     -0.5065
     25  O23      -48.2840  -28.9240    1.6940 O.2   201  RY6201     -0.2702
     26  O26      -52.6180  -28.9910    7.0800 O.2   201  RY6201     -0.2527
     27 H151      -43.7050  -29.4760   -0.3420 H     201  RY6201      0.0322
     28 H152      -42.6390  -30.3690    0.7920 H     201  RY6201      0.0322
     29 H111      -44.4260  -28.4770    1.5310 H     201  RY6201      0.0393
     30 H101      -46.2750  -29.4280    0.7610 H     201  RY6201      0.0555
     31 H201      -46.6920  -34.5240   -0.0840 H     201  RY6201      0.0619
     32 H191      -44.4650  -34.5170   -1.1240 H     201  RY6201      0.0654
     33 H051      -47.8420  -29.1480    7.3590 H     201  RY6201      0.0636
     34 H061      -46.6200  -29.2120    5.2040 H     201  RY6201      0.0626
     35 H211      -47.4540  -32.5450    1.1770 H     201  RY6201      0.0621
     36 H241      -50.3480  -29.0710    3.0950 H     201  RY6201      0.0626
     37 H251      -51.5780  -29.0060    5.2370 H     201  RY6201      0.0636
     38 H012      -53.1570  -29.1100    9.5710 H     201  RY6201      0.1465
     39 H011      -51.4830  -29.1500   10.0240 H     201  RY6201      0.1465
     40 H031      -49.8060  -29.1240    8.5400 H     201  RY6201      0.1564
     41 H091      -46.0370  -30.1120    3.6060 H     201  RY6201      0.1496
     42 H181      -42.7260  -32.7890   -1.9090 H     201  RY6201      0.2921
@<TRIPOS>UNITY_ATOM_ATTR
22 1
charge -1
@<TRIPOS>BOND
     1    42    24    1
     2    32     8    1
     3    24     2    1
     4     8     2   ar
     5     8     7   ar
     6     2     1   ar
     7    27     3    1
     8    31     7    1
     9     7    15   ar
    10     1     3    1
    11     1    16   ar
    12     3    28    1
    13     3     5    1
    14    15    16   ar
    15    15    35    1
    16    30     6    1
    17    16     6    1
    18     6     5    1
    19     6    21    1
    20    29     5    1
    21     5     4    1
    22    25    14    2
    23    14    21   am
    24    14    13    1
    25    21    41    1
    26     4    22   ar
    27     4    23   ar
    28    36    17    1
    29    17    13   ar
    30    17    18   ar
    31    13    12   ar
    32    34    12    1
    33    12    11   ar
    34    37    18    1
    35    18    10   ar
    36    11    10   ar
    37    11    33    1
    38    10    20    1
    39    26     9    2
    40    20     9   am
    41    20    40    1
    42     9    19   am
    43    19    38    1
    44    19    39    1
