@<TRIPOS>MOLECULE
/home/pku/3cl/gett_pdb/7TDU/7TDU_mol2/ligand/7TDU_I1W.pdb
 91 95 0 0 0
SMALL
GASTEIGER

@<TRIPOS>ATOM
      1  C2        14.3890    3.0310  -16.1740 C.3   401  I1W401      0.2094
      2  C3        15.2610    3.6800  -17.2750 C.ar  401  I1W401      0.1197
      3  C5        15.8870    4.3480  -19.2950 C.ar  401  I1W401      0.0786
      4  C6        15.8150    4.5690  -20.7150 C.ar  401  I1W401     -0.0352
      5  C8        18.0390    5.6470  -20.6340 C.ar  401  I1W401     -0.0606
      6  C9        18.1300    5.4370  -19.2340 C.ar  401  I1W401     -0.0459
      7  C10       17.0390    4.7900  -18.5730 C.ar  401  I1W401      0.0393
      8  C18       14.3190    1.5120  -16.4750 C.3   401  I1W401      0.0654
      9  C19       13.4270    0.6910  -15.5430 C.3   401  I1W401     -0.0200
     10  C31       17.2040   -3.5300  -18.5840 C.3   401  I1W401      0.1058
     11  C33       14.7580   -4.4630  -18.2890 C.3   401  I1W401     -0.0579
     12  C34       15.2340   -2.6960  -19.9780 C.3   401  I1W401     -0.0579
     13  C37       19.1490   -4.9550  -17.9630 C.2   401  I1W401      0.3006
     14  C39       20.9930   -6.4010  -16.8520 C.3   401  I1W401      0.0276
     15  C40       21.2720   -7.3520  -18.0240 C.3   401  I1W401     -0.0442
     16  C41       20.9810   -7.1620  -15.5250 C.3   401  I1W401     -0.0442
     17  C42       22.0980   -5.3220  -16.7750 C.3   401  I1W401     -0.0442
     18  O1        13.1120    3.6210  -16.1950 O.3   401  I1W401     -0.2147
     19  N4        14.9190    3.7320  -18.5160 N.ar  401  I1W401     -0.2408
     20  C7        16.8930    5.2190  -21.3710 C.ar  401  I1W401     -0.0597
     21  S11       16.8360    4.3810  -16.8720 S.2   401  I1W401     -0.0689
     22  C20       13.1730   -0.7280  -15.9840 C.3   401  I1W401      0.0387
     23  C21       12.1820   -0.9150  -17.1390 C.3   401  I1W401     -0.0262
     24  C22       11.5760   -2.2900  -16.8990 C.3   401  I1W401      0.0123
     25  N23       11.7460   -2.4630  -15.4660 N.am  401  I1W401     -0.3151
     26  C24       12.6100   -1.6140  -14.9000 C.2   401  I1W401      0.2162
     27  O25       12.8830   -1.5830  -13.7080 O.2   401  I1W401     -0.2755
     28  N26       15.6550    0.9400  -16.4180 N.am  401  I1W401     -0.3075
     29  C27       16.4390    0.5820  -17.4570 C.2   401  I1W401      0.2342
     30  C28       17.8450    0.0370  -17.2300 C.3   401  I1W401      0.1058
     31  N29       17.9800   -1.2400  -17.9570 N.am  401  I1W401     -0.2878
     32  C30       17.2080   -2.3200  -17.6340 C.2   401  I1W401      0.2371
     33  C32       15.8100   -3.9250  -19.2590 C.3   401  I1W401     -0.0108
     34  C35       16.0860   -4.9900  -20.3250 C.3   401  I1W401     -0.0579
     35  N36       17.8260   -4.5740  -17.7610 N.am  401  I1W401     -0.2876
     36  N38       19.6200   -5.7950  -16.9910 N.am  401  I1W401     -0.2947
     37  O43       19.8210   -4.5450  -18.9460 O.2   401  I1W401     -0.2528
     38  O44       16.4930   -2.3390  -16.6050 O.2   401  I1W401     -0.2735
     39  C45       19.0020   -1.1670  -19.0180 C.3   401  I1W401      0.0192
     40  C46       19.5890    0.2310  -18.9610 C.3   401  I1W401     -0.0142
     41  C47       21.2940    1.8810  -17.9780 C.3   401  I1W401     -0.0592
     42  C48       20.9840   -0.3230  -16.7330 C.3   401  I1W401     -0.0592
     43  C49       18.8950    0.9880  -17.8600 C.3   401  I1W401     -0.0037
     44  O50       15.9950    0.6740  -18.6060 O.2   401  I1W401     -0.2738
     45  C1B       20.4010    0.6720  -17.7450 C.3   401  I1W401     -0.0250
     46  H53       14.9410    4.2370  -21.2540 H     401  I1W401      0.0639
     47  H55       18.8590    6.1430  -21.1600 H     401  I1W401      0.0618
     48  H56       19.0070    5.7700  -18.6860 H     401  I1W401      0.0629
     49  H61       13.9590    1.3910  -17.5100 H     401  I1W401      0.0533
     50  H63       12.4830    1.2370  -15.3390 H     401  I1W401      0.0291
     51  H62       13.9700    0.6380  -14.6000 H     401  I1W401      0.0291
     52  H72       17.8820   -3.3400  -19.4110 H     401  I1W401      0.0600
     53  H75       14.7310   -3.9070  -17.3550 H     401  I1W401      0.0236
     54  H74       14.9330   -5.5190  -18.0630 H     401  I1W401      0.0236
     55  H73       13.7690   -4.4000  -18.7530 H     401  I1W401      0.0236
     56  H78       14.9730   -1.8880  -19.2850 H     401  I1W401      0.0236
     57  H76       14.3320   -2.9700  -20.5380 H     401  I1W401      0.0236
     58  H77       15.9560   -2.3020  -20.7050 H     401  I1W401      0.0236
     59  H86       22.0720   -8.0500  -17.7750 H     401  I1W401      0.0250
     60  H84       21.5730   -6.7730  -18.9150 H     401  I1W401      0.0250
     61  H85       20.3690   -7.9010  -18.2820 H     401  I1W401      0.0250
     62  H87       21.9900   -7.2330  -15.1110 H     401  I1W401      0.0250
     63  H89       20.5920   -8.1680  -15.6640 H     401  I1W401      0.0250
     64  H88       20.3630   -6.6420  -14.7760 H     401  I1W401      0.0250
     65  H92       22.9520   -5.6720  -16.2020 H     401  I1W401      0.0250
     66  H91       21.7080   -4.4060  -16.3060 H     401  I1W401      0.0250
     67  H90       22.4350   -5.0580  -17.7750 H     401  I1W401      0.0250
     68  H54       16.8450    5.3870  -22.4510 H     401  I1W401      0.0618
     69  H64       14.1390   -1.2200  -16.2300 H     401  I1W401      0.0395
     70  H66       12.7460   -0.8730  -18.0810 H     401  I1W401      0.0288
     71  H65       11.3970   -0.1800  -17.1270 H     401  I1W401      0.0288
     72  H67       12.1500   -3.0840  -17.4130 H     401  I1W401      0.0462
     73  H68       10.5240   -2.3360  -17.2120 H     401  I1W401      0.0462
     74  D69       11.2620   -3.1500  -14.9180 H     401  I1W401      0.1487
     75  D70       16.0450    0.7810  -15.5190 H     401  I1W401      0.1491
     76  H71       18.0090   -0.1410  -16.1540 H     401  I1W401      0.0600
     77  H81       16.7100   -5.7930  -19.9090 H     401  I1W401      0.0236
     78  H80       16.6170   -4.5460  -21.1810 H     401  I1W401      0.0236
     79  H79       15.1570   -5.4290  -20.7070 H     401  I1W401      0.0236
     80  D82       17.3170   -4.9340  -16.9560 H     401  I1W401      0.1510
     81  D83       18.9680   -6.0370  -16.2650 H     401  I1W401      0.1507
     82  H94       18.5430   -1.3820  -19.9910 H     401  I1W401      0.0468
     83  H93       19.7840   -1.9220  -18.8050 H     401  I1W401      0.0468
     84  H52       19.8080    0.7010  -19.9130 H     401  I1W401      0.0325
     85  H97       22.3450    1.6090  -18.0220 H     401  I1W401      0.0235
     86  H95       21.1450    2.6110  -17.1740 H     401  I1W401      0.0235
     87  H96       21.0220    2.3850  -18.9250 H     401  I1W401      0.0235
     88  H98       21.8490   -0.8650  -17.1100 H     401  I1W401      0.0235
     89  H99       20.2200   -1.0590  -16.4580 H     401  I1W401      0.0235
     90  H10       21.2680    0.2330  -15.8350 H     401  I1W401      0.0235
     91  H51       18.5990    2.0210  -17.9750 H     401  I1W401      0.0332
@<TRIPOS>BOND
     1    68    20    1
     2    20     4   ar
     3    20     5   ar
     4    46     4    1
     5    78    34    1
     6    47     5    1
     7     4     3   ar
     8    79    34    1
     9    58    12    1
    10     5     6   ar
    11    57    12    1
    12    34    77    1
    13    34    33    1
    14    82    39    1
    15    12    56    1
    16    12    33    1
    17    84    40    1
    18    52    10    1
    19     3     7   ar
    20     3    19   ar
    21    33    10    1
    22    33    11    1
    23     6    48    1
    24     6     7   ar
    25    39    40    1
    26    39    83    1
    27    39    31    1
    28    40    43    1
    29    40    45    1
    30    37    13    2
    31    87    41    1
    32    60    15    1
    33    55    11    1
    34    44    29    2
    35    10    35    1
    36    10    32    1
    37     7    21   ar
    38    19     2   ar
    39    11    54    1
    40    11    53    1
    41    61    15    1
    42    70    23    1
    43    15    59    1
    44    15    14    1
    45    85    41    1
    46    41    45    1
    47    41    86    1
    48    91    43    1
    49    13    35   am
    50    13    36   am
    51    31    32   am
    52    31    30    1
    53    43    45    1
    54    43    30    1
    55    67    17    1
    56    35    80    1
    57    45    42    1
    58    32    38    2
    59    49     8    1
    60    29    30    1
    61    29    28   am
    62    72    24    1
    63     2    21   ar
    64     2     1    1
    65    30    76    1
    66    73    24    1
    67    23    71    1
    68    23    24    1
    69    23    22    1
    70    88    42    1
    71    36    14    1
    72    36    81    1
    73    24    25    1
    74    14    17    1
    75    14    16    1
    76    17    66    1
    77    17    65    1
    78    42    89    1
    79    42    90    1
    80     8    28    1
    81     8     1    1
    82     8     9    1
    83    28    75    1
    84    69    22    1
    85    18     1    1
    86    22     9    1
    87    22    26    1
    88    63    16    1
    89     9    50    1
    90     9    51    1
    91    16    62    1
    92    16    64    1
    93    25    74    1
    94    25    26   am
    95    26    27    2
