YTV
  -OEChem-02242320043D

 58 61  0     0  0  0  0  0  0999 V2000
   -1.0740    1.4920    0.3310 C   0  0  0  0  0  0  0  0  0  0  0  0
   -0.6790    0.1350    0.2460 C   0  0  0  0  0  0  0  0  0  0  0  0
    0.7280   -0.2530    0.5030 C   0  0  0  0  0  0  0  0  0  0  0  0
    1.0420   -1.0630    1.5950 C   0  0  0  0  0  0  0  0  0  0  0  0
    2.3540   -1.4230    1.8310 C   0  0  0  0  0  0  0  0  0  0  0  0
    3.3590   -0.9820    0.9880 C   0  0  0  0  0  0  0  0  0  0  0  0
   -0.2530    2.3470    0.6160 O   0  0  0  0  0  0  0  0  0  0  0  0
    4.0450    0.2530   -0.9250 O   0  0  0  0  0  0  0  0  0  0  0  0
   -2.3510    1.8420    0.0930 N   0  0  0  0  0  0  0  0  0  0  0  0
    3.0550   -0.1770   -0.1000 C   0  0  0  0  0  0  0  0  0  0  0  0
    5.3760   -0.1620   -0.6130 C   0  0  0  0  0  0  0  0  0  0  0  0
    6.3460    0.4150   -1.6450 C   0  0  0  0  0  0  0  0  0  0  0  0
   -3.7340   -2.6290    1.3230 O   0  0  0  0  0  0  0  0  0  0  0  0
   -6.7330   -4.1120   -1.5940 O   0  0  0  0  0  0  0  0  0  0  0  0
    7.7710   -0.0300   -1.3110 C   0  0  0  0  0  0  0  0  0  0  0  0
    8.7550    0.6470   -2.2670 C   0  0  0  0  0  0  0  0  0  0  0  0
    8.1050    0.3660    0.1290 C   0  0  0  0  0  0  0  0  0  0  0  0
    1.7400    0.1850   -0.3490 C   0  0  0  0  0  0  0  0  0  0  0  0
   -1.6220   -0.8240   -0.0790 C   0  0  0  0  0  0  0  0  0  0  0  0
   -2.9510   -0.4220   -0.3160 C   0  0  0  0  0  0  0  0  0  0  0  0
   -3.9840   -1.4290   -0.6670 C   0  0  0  0  0  0  0  0  0  0  0  0
   -4.3080   -2.5260    0.2540 C   0  0  0  0  0  0  0  0  0  0  0  0
   -4.6580   -1.3550   -1.8480 C   0  0  0  0  0  0  0  0  0  0  0  0
   -5.8840   -3.2960   -1.2900 C   0  0  0  0  0  0  0  0  0  0  0  0
   -3.2850    0.9100   -0.2320 C   0  0  0  0  0  0  0  0  0  0  0  0
   -2.7240    3.1880    0.1820 C   0  0  0  0  0  0  0  0  0  0  0  0
   -2.6580    4.0150   -0.9380 C   0  0  0  0  0  0  0  0  0  0  0  0
   -3.0380    5.3400   -0.8000 C   0  0  0  0  0  0  0  0  0  0  0  0
   -3.4670    5.7950    0.4330 C   0  0  0  0  0  0  0  0  0  0  0  0
   -3.1710    3.7180    1.3850 C   0  0  0  0  0  0  0  0  0  0  0  0
   -5.2540   -3.4170   -0.1080 N   0  0  0  0  0  0  0  0  0  0  0  0
   -5.6040   -2.2970   -2.1430 N   0  0  0  0  0  0  0  0  0  0  0  0
   -3.5180    4.9860    1.4740 N   0  0  0  0  0  0  0  0  0  0  0  0
    7.8720   -1.4490   -1.4500 O   0  0  0  0  0  0  0  0  0  0  0  0
    2.7440   -2.4310    3.1900 Cl  0  0  0  0  0  0  0  0  0  0  0  0
    0.2600   -1.4080    2.2540 H   0  0  0  0  0  0  0  0  0  0  0  0
    4.3840   -1.2660    1.1780 H   0  0  0  0  0  0  0  0  0  0  0  0
    5.6450    0.1970    0.3800 H   0  0  0  0  0  0  0  0  0  0  0  0
    5.4310   -1.2510   -0.6320 H   0  0  0  0  0  0  0  0  0  0  0  0
    6.0770    0.0550   -2.6380 H   0  0  0  0  0  0  0  0  0  0  0  0
    6.2920    1.5040   -1.6260 H   0  0  0  0  0  0  0  0  0  0  0  0
    8.6780    1.7290   -2.1610 H   0  0  0  0  0  0  0  0  0  0  0  0
    9.7700    0.3300   -2.0290 H   0  0  0  0  0  0  0  0  0  0  0  0
    8.5170    0.3650   -3.2930 H   0  0  0  0  0  0  0  0  0  0  0  0
    7.4040   -0.1160    0.8100 H   0  0  0  0  0  0  0  0  0  0  0  0
    9.1200    0.0490    0.3670 H   0  0  0  0  0  0  0  0  0  0  0  0
    8.0280    1.4490    0.2350 H   0  0  0  0  0  0  0  0  0  0  0  0
    1.5020    0.8080   -1.1980 H   0  0  0  0  0  0  0  0  0  0  0  0
   -1.3430   -1.8650   -0.1490 H   0  0  0  0  0  0  0  0  0  0  0  0
   -4.4470   -0.5590   -2.5460 H   0  0  0  0  0  0  0  0  0  0  0  0
   -4.3040    1.2170   -0.4180 H   0  0  0  0  0  0  0  0  0  0  0  0
   -2.3190    3.6330   -1.8890 H   0  0  0  0  0  0  0  0  0  0  0  0
   -3.0000    6.0100   -1.6460 H   0  0  0  0  0  0  0  0  0  0  0  0
   -3.7600    6.8280    0.5470 H   0  0  0  0  0  0  0  0  0  0  0  0
   -3.2300    3.0850    2.2580 H   0  0  0  0  0  0  0  0  0  0  0  0
   -5.4820   -4.1480    0.4880 H   0  0  0  0  0  0  0  0  0  0  0  0
   -6.0820   -2.2430   -2.9840 H   0  0  0  0  0  0  0  0  0  0  0  0
    8.7500   -1.8020   -1.2530 H   0  0  0  0  0  0  0  0  0  0  0  0
 29 33  2  0  0  0  0
 28 29  1  0  0  0  0
 30 33  1  0  0  0  0
 27 28  2  0  0  0  0
 26 30  2  0  0  0  0
 26 27  1  0  0  0  0
  9 26  1  0  0  0  0
 13 22  2  0  0  0  0
  9 25  1  0  0  0  0
  1  9  1  0  0  0  0
 20 25  2  0  0  0  0
 22 31  1  0  0  0  0
 21 22  1  0  0  0  0
 24 31  1  0  0  0  0
  1  7  2  0  0  0  0
  1  2  1  0  0  0  0
 20 21  1  0  0  0  0
 19 20  1  0  0  0  0
 21 23  2  0  0  0  0
 14 24  2  0  0  0  0
 24 32  1  0  0  0  0
  2 19  2  0  0  0  0
  2  3  1  0  0  0  0
 23 32  1  0  0  0  0
  3 18  2  0  0  0  0
  3  4  1  0  0  0  0
 10 18  1  0  0  0  0
  4  5  2  0  0  0  0
 11 12  1  0  0  0  0
  8 11  1  0  0  0  0
 15 16  1  0  0  0  0
  8 10  1  0  0  0  0
  6 10  2  0  0  0  0
 12 15  1  0  0  0  0
  5  6  1  0  0  0  0
  5 35  1  0  0  0  0
 15 34  1  0  0  0  0
 15 17  1  0  0  0  0
  4 36  1  0  0  0  0
  6 37  1  0  0  0  0
 11 38  1  0  0  0  0
 11 39  1  0  0  0  0
 12 40  1  0  0  0  0
 12 41  1  0  0  0  0
 16 42  1  0  0  0  0
 16 43  1  0  0  0  0
 16 44  1  0  0  0  0
 17 45  1  0  0  0  0
 17 46  1  0  0  0  0
 17 47  1  0  0  0  0
 18 48  1  0  0  0  0
 19 49  1  0  0  0  0
 23 50  1  0  0  0  0
 25 51  1  0  0  0  0
 27 52  1  0  0  0  0
 28 53  1  0  0  0  0
 29 54  1  0  0  0  0
 30 55  1  0  0  0  0
 31 56  1  0  0  0  0
 32 57  1  0  0  0  0
 34 58  1  0  0  0  0
M  END
> <OPENEYE_ISO_SMILES>
CC(C)(CCOc1cc(cc(c1)Cl)c2cc(cn(c2=O)c3cccnc3)c4c[nH]c(=O)[nH]c4=O)O

> <OPENEYE_INCHI>
InChI=1S/C25H23ClN4O5/c1-25(2,34)5-7-35-19-9-15(8-17(26)11-19)20-10-16(21-13-28-24(33)29-22(21)31)14-30(23(20)32)18-4-3-6-27-12-18/h3-4,6,8-14,34H,5,7H2,1-2H3,(H2,28,29,31,33)

> <OPENEYE_INCHIKEY>
JKRQOBZCXCNDAL-UHFFFAOYSA-N

> <FORMULA>
C25H23ClN4O5

$$$$
