S5U
  -OEChem-02242320043D

 33 34  0     0  0  0  0  0  0999 V2000
    2.6640    2.0160   -0.3290 C   0  0  0  0  0  0  0  0  0  0  0  0
    3.9070    2.4470   -0.0470 C   0  0  0  0  0  0  0  0  0  0  0  0
    3.9430    0.2450    0.3790 C   0  0  0  0  0  0  0  0  0  0  0  0
    3.2590   -1.9390    0.5910 C   0  0  0  0  0  0  0  0  0  0  0  0
    1.6790   -0.4330   -0.1560 C   0  0  0  0  0  0  0  0  0  0  0  0
    2.6420    0.5830   -0.0660 C   0  0  0  0  0  0  0  0  0  0  0  0
   -0.3320   -2.4080   -0.0000 C   0  0  0  0  0  0  0  0  0  0  0  0
   -1.9720   -0.8400   -1.1350 C   0  0  0  0  0  0  0  0  0  0  0  0
   -2.8770   -0.2770   -0.0370 C   0  0  0  0  0  0  0  0  0  0  0  0
   -4.2680   -0.0050   -0.6120 C   0  0  0  0  0  0  0  0  0  0  0  0
   -5.1590    0.5490    0.4690 C   0  0  0  0  0  0  0  0  0  0  0  0
    0.3020   -0.1380   -0.6150 C   0  0  0  0  0  0  0  0  0  0  0  0
   -0.6400   -1.1010   -0.5840 N   0  0  0  0  0  0  0  0  0  0  0  0
    2.0360   -1.6710    0.1820 N   0  0  0  0  0  0  0  0  0  0  0  0
    4.1970   -1.0180    0.6910 N   0  0  0  0  0  0  0  0  0  0  0  0
    4.6790    1.4000    0.3770 N   0  0  0  0  0  0  0  0  0  0  0  0
   -6.4340    0.8640    0.1920 O   0  0  0  0  0  0  0  0  0  0  0  0
   -4.7260    0.7100    1.5860 O   0  0  0  0  0  0  0  0  0  0  0  0
    0.0220    0.9740   -1.0190 O   0  0  0  0  0  0  0  0  0  0  0  0
    1.8390    2.6190   -0.6800 H   0  0  0  0  0  0  0  0  0  0  0  0
    4.2450    3.4680   -0.1410 H   0  0  0  0  0  0  0  0  0  0  0  0
    3.5050   -2.9570    0.8550 H   0  0  0  0  0  0  0  0  0  0  0  0
    0.1710   -3.0290   -0.7430 H   0  0  0  0  0  0  0  0  0  0  0  0
    0.3200   -2.2760    0.8630 H   0  0  0  0  0  0  0  0  0  0  0  0
   -1.2560   -2.8940    0.3130 H   0  0  0  0  0  0  0  0  0  0  0  0
   -2.3970   -1.7700   -1.5150 H   0  0  0  0  0  0  0  0  0  0  0  0
   -1.8940   -0.1180   -1.9480 H   0  0  0  0  0  0  0  0  0  0  0  0
   -2.9540   -1.0000    0.7750 H   0  0  0  0  0  0  0  0  0  0  0  0
   -2.4520    0.6520    0.3430 H   0  0  0  0  0  0  0  0  0  0  0  0
   -4.1900    0.7170   -1.4250 H   0  0  0  0  0  0  0  0  0  0  0  0
   -4.6930   -0.9340   -0.9920 H   0  0  0  0  0  0  0  0  0  0  0  0
    5.6110    1.4650    0.6360 H   0  0  0  0  0  0  0  0  0  0  0  0
   -6.9670    1.2170    0.9190 H   0  0  0  0  0  0  0  0  0  0  0  0
 11 18  2  0  0  0  0
  9 10  1  0  0  0  0
  8  9  1  0  0  0  0
 10 11  1  0  0  0  0
 11 17  1  0  0  0  0
  8 13  1  0  0  0  0
  7 13  1  0  0  0  0
 12 13  1  0  0  0  0
 12 19  2  0  0  0  0
  5 12  1  0  0  0  0
  5  6  2  0  0  0  0
  5 14  1  0  0  0  0
  1  6  1  0  0  0  0
  1  2  2  0  0  0  0
  3  6  1  0  0  0  0
  4 14  2  0  0  0  0
  2 16  1  0  0  0  0
  3 16  1  0  0  0  0
  3 15  2  0  0  0  0
  4 15  1  0  0  0  0
  1 20  1  0  0  0  0
  2 21  1  0  0  0  0
  4 22  1  0  0  0  0
  7 23  1  0  0  0  0
  7 24  1  0  0  0  0
  7 25  1  0  0  0  0
  8 26  1  0  0  0  0
  8 27  1  0  0  0  0
  9 28  1  0  0  0  0
  9 29  1  0  0  0  0
 10 30  1  0  0  0  0
 10 31  1  0  0  0  0
 16 32  1  0  0  0  0
 17 33  1  0  0  0  0
M  END
> <OPENEYE_ISO_SMILES>
CN(CCCC(=O)O)C(=O)c1c2cc[nH]c2ncn1

> <OPENEYE_INCHI>
InChI=1S/C12H14N4O3/c1-16(6-2-3-9(17)18)12(19)10-8-4-5-13-11(8)15-7-14-10/h4-5,7H,2-3,6H2,1H3,(H,17,18)(H,13,14,15)

> <OPENEYE_INCHIKEY>
LEKMKDGQMQYONU-UHFFFAOYSA-N

> <FORMULA>
C12H14N4O3

$$$$
