@<TRIPOS>MOLECULE
/home/pku/3cl/gett_pdb/7S3K/7S3K_mol2/ligand/7S3K_Z26.pdb
 23 25 0 0 0
SMALL
GASTEIGER

@<TRIPOS>ATOM
      1  C1       -20.0170   -0.8500   15.3650 C.ar  401  Z26401      0.0218
      2  C10      -17.7170    1.3510    9.0220 C.ar  401  Z26401      0.0204
      3  C11      -16.3110    1.2670    9.1800 C.ar  401  Z26401      0.0989
      4  C13      -16.5020   -0.1430   10.9920 C.ar  401  Z26401      0.1154
      5  C14      -19.9600    0.7080    9.7840 C.ar  401  Z26401      0.0014
      6  C15      -20.5050    1.4720    8.7750 C.ar  401  Z26401      0.0000
      7  C16      -19.6800    2.1870    7.8720 C.ar  401  Z26401      0.0001
      8  C17      -18.3090    2.1290    7.9950 C.ar  401  Z26401      0.0016
      9  C19      -21.0010    0.5650   17.0920 C.ar  401  Z26401      0.0374
     10  C2       -19.9330   -1.2920   13.9310 C.3   401  Z26401      0.1165
     11  C20      -20.9330    0.1490   15.7580 C.ar  401  Z26401      0.1352
     12  C22      -21.9610    2.0520   14.7140 C.3   401  Z26401      0.2525
     13  C3       -19.0390   -0.3870   13.0830 C.2   401  Z26401      0.2501
     14  C4       -19.1730   -1.4040   16.3180 C.ar  401  Z26401      0.0106
     15  C5       -19.2480   -0.9840   17.6380 C.ar  401  Z26401      0.0576
     16  C7       -20.1460   -0.0030   18.0420 C.ar  401  Z26401      0.0145
     17  C8       -17.8840   -0.1410   10.9400 C.ar  401  Z26401      0.0925
     18  C9       -18.5470    0.6260    9.9330 C.ar  401  Z26401      0.0184
     19  N12      -15.7210    0.5560   10.1200 N.ar  401  Z26401     -0.2410
     20  N6       -18.6860   -0.8520   11.8520 N.am  401  Z26401     -0.1773
     21  O18      -18.6710    0.7060   13.5200 O.2   401  Z26401     -0.2726
     22  O21      -21.7180    0.6410   14.7540 O.3   401  Z26401     -0.4717
     23 CL23      -18.1500   -1.7370   18.7920 Cl    401  Z26401     -0.0823
@<TRIPOS>BOND
     1     7     8   ar
     2     7     6   ar
     3     8     2   ar
     4     6     5   ar
     5     2     3   ar
     6     2    18   ar
     7     3    19   ar
     8     5    18   ar
     9    18    17   ar
    10    19     4   ar
    11    17     4   ar
    12    17    20    1
    13    20    13   am
    14    13    21    2
    15    13    10    1
    16    10     1    1
    17    12    22    1
    18    22    11    1
    19     1    11   ar
    20     1    14   ar
    21    11     9   ar
    22    14    15   ar
    23     9    16   ar
    24    15    16   ar
    25    15    23    1
