@<TRIPOS>MOLECULE
/home/pku/3cl/gett_pdb/6WQ3/6WQ3_mol2/ligand/6WQ3_SAH.pdb
 26 28 0 0 0
SMALL
GASTEIGER

@<TRIPOS>ATOM
      1  N         82.6250   19.5560   24.4310 N.3   7101  SAH7101    -0.1208
      2  CA        81.3110   19.0620   24.9240 C.3   7101  SAH7101     0.1952
      3  CB        81.2200   19.1460   26.4570 C.3   7101  SAH7101     0.0422
      4  CG        82.2870   18.2980   27.1690 C.3   7101  SAH7101     0.0597
      5  SD        82.0170   18.1050   28.9650 S.3   7101  SAH7101    -0.1375
      6  C         80.2100   19.8920   24.2560 C.2   7101  SAH7101     0.3819
      7  O         80.4290   20.3600   23.1250 O.co2 7101  SAH7101    -0.2441
      8  OXT       79.1220   20.1000   24.7910 O.co2 7101  SAH7101    -0.2441
      9  C5'       83.5830   17.2820   29.3870 C.3   7101  SAH7101     0.0898
     10  C4'       83.7060   15.9140   28.7360 C.3   7101  SAH7101     0.1610
     11  O4'       85.0160   15.3540   28.9880 O.3   7101  SAH7101    -0.3323
     12  C3'       82.6970   14.8670   29.2310 C.3   7101  SAH7101     0.2144
     13  O3'       81.8130   14.4990   28.1770 O.3   7101  SAH7101    -0.2176
     14  C2'       83.5720   13.6970   29.7060 C.3   7101  SAH7101     0.2337
     15  O2'       83.0310   12.4360   29.3790 O.3   7101  SAH7101    -0.2155
     16  C1'       84.8720   13.9540   28.9540 C.3   7101  SAH7101     0.2409
     17  N9        86.0420   13.3120   29.5440 N.ar  7101  SAH7101    -0.2693
     18  C8        86.5400   13.5070   30.8080 C.ar  7101  SAH7101     0.1816
     19  N7        87.5980   12.7820   31.0690 N.ar  7101  SAH7101    -0.2193
     20  C5        87.8130   12.0520   29.9110 C.ar  7101  SAH7101     0.1518
     21  C6        88.7830   11.0910   29.5610 C.ar  7101  SAH7101     0.1919
     22  N6        89.7540   10.6810   30.3740 N.pl3 7101  SAH7101    -0.1054
     23  N1        88.7100   10.5560   28.3170 N.ar  7101  SAH7101    -0.2040
     24  C2        87.7300   10.9680   27.5030 C.ar  7101  SAH7101     0.2016
     25  N3        86.7630   11.8530   27.7270 N.ar  7101  SAH7101    -0.2048
     26  C4        86.8580   12.3700   28.9620 C.ar  7101  SAH7101     0.1692
@<TRIPOS>BOND
     1     7     6   ar
     2     6     8   ar
     3     6     2    1
     4     1     2    1
     5     2     3    1
     6     3     4    1
     7     4     5    1
     8    24    25   ar
     9    24    23   ar
    10    25    26   ar
    11    13    12    1
    12    23    21   ar
    13    10    11    1
    14    10    12    1
    15    10     9    1
    16    16    11    1
    17    16    17    1
    18    16    14    1
    19    26    17   ar
    20    26    20   ar
    21     5     9    1
    22    12    14    1
    23    15    14    1
    24    17    18   ar
    25    21    20   ar
    26    21    22    1
    27    20    19   ar
    28    18    19   ar
