V56
  -OEChem-02242320043D

 69 70  0     1  0  0  0  0  0999 V2000
   -0.1600    0.2690   -0.0650 O   0  0  0  0  0  0  0  0  0  0  0  0
   -0.0870    1.4170    0.3260 C   0  0  0  0  0  0  0  0  0  0  0  0
   -0.2340   -4.5210   -0.1320 N   0  0  0  0  0  0  0  0  0  0  0  0
    0.7010   -4.7440    0.9980 C   0  0  0  0  0  0  0  0  0  0  0  0
    1.9520   -3.8930    0.7670 C   0  0  0  0  0  0  0  0  0  0  0  0
    2.0550   -2.8300    1.8620 C   0  0  0  0  0  0  0  0  0  0  0  0
    2.6510   -1.5490    1.2750 C   0  0  0  0  0  0  0  0  0  0  0  0
    1.5400   -0.5320    1.0160 C   0  0  0  0  0  0  0  0  0  0  0  0
    1.0290    1.8470    0.9440 O   0  0  0  0  0  0  0  0  0  0  0  0
    2.1050    0.8860    1.1060 C   0  0  2  0  0  0  0  0  0  0  0  0
    3.1280    1.0890    0.0180 C   0  0  0  0  0  0  0  0  0  0  0  0
    2.7240    1.4790   -1.2460 C   0  0  0  0  0  0  0  0  0  0  0  0
    3.6620    1.6660   -2.2440 C   0  0  0  0  0  0  0  0  0  0  0  0
    5.0030    1.4630   -1.9800 C   0  0  0  0  0  0  0  0  0  0  0  0
    5.4080    1.0740   -0.7160 C   0  0  0  0  0  0  0  0  0  0  0  0
    7.0930    0.8200   -0.3830 Cl  0  0  0  0  0  0  0  0  0  0  0  0
    4.4700    0.8920    0.2850 C   0  0  0  0  0  0  0  0  0  0  0  0
   -1.1200    2.2610    0.1350 N   0  0  0  0  0  0  0  0  0  0  0  0
   -2.4900    1.8120    0.3900 C   0  0  2  0  0  0  0  0  0  0  0  0
   -2.8200    0.6610   -0.5260 C   0  0  0  0  0  0  0  0  0  0  0  0
   -2.4560    0.6710   -1.6830 O   0  0  0  0  0  0  0  0  0  0  0  0
   -3.4610    2.9650    0.1300 C   0  0  0  0  0  0  0  0  0  0  0  0
   -3.1860    4.0970    1.1220 C   0  0  0  0  0  0  0  0  0  0  0  0
   -4.0560    5.3060    0.7700 C   0  0  0  0  0  0  0  0  0  0  0  0
   -3.5170    3.6250    2.5390 C   0  0  0  0  0  0  0  0  0  0  0  0
   -3.5350   -0.3900   -0.0340 N   0  0  0  0  0  0  0  0  0  0  0  0
   -3.8280   -1.4820   -0.9860 C   0  0  1  0  0  0  0  0  0  0  0  0
   -3.5790   -2.8220   -0.2910 C   0  0  0  0  0  0  0  0  0  0  0  0
   -2.3470   -3.4920   -0.9030 C   0  0  0  0  0  0  0  0  0  0  0  0
   -1.3370   -3.7710    0.1800 C   0  0  0  0  0  0  0  0  0  0  0  0
   -1.4970   -3.3420    1.3030 O   0  0  0  0  0  0  0  0  0  0  0  0
   -5.2910   -1.3980   -1.4270 C   0  0  0  0  0  0  0  0  0  0  0  0
   -5.4940   -0.1980   -2.1770 O   0  0  0  0  0  0  0  0  0  0  0  0
    0.2240   -4.4480    1.9320 H   0  0  0  0  0  0  0  0  0  0  0  0
    0.9780   -5.7970    1.0420 H   0  0  0  0  0  0  0  0  0  0  0  0
    2.8360   -4.5310    0.7960 H   0  0  0  0  0  0  0  0  0  0  0  0
    1.8870   -3.4070   -0.2060 H   0  0  0  0  0  0  0  0  0  0  0  0
    1.0610   -2.6200    2.2590 H   0  0  0  0  0  0  0  0  0  0  0  0
    2.6960   -3.1950    2.6640 H   0  0  0  0  0  0  0  0  0  0  0  0
    3.3720   -1.1290    1.9770 H   0  0  0  0  0  0  0  0  0  0  0  0
    3.1520   -1.7790    0.3350 H   0  0  0  0  0  0  0  0  0  0  0  0
    1.1260   -0.6930    0.0210 H   0  0  0  0  0  0  0  0  0  0  0  0
    0.7540   -0.6550    1.7610 H   0  0  0  0  0  0  0  0  0  0  0  0
    2.5770    1.0290    2.0790 H   0  0  0  0  0  0  0  0  0  0  0  0
    1.6760    1.6370   -1.4530 H   0  0  0  0  0  0  0  0  0  0  0  0
    3.3460    1.9700   -3.2310 H   0  0  0  0  0  0  0  0  0  0  0  0
    5.7360    1.6090   -2.7600 H   0  0  0  0  0  0  0  0  0  0  0  0
    4.7850    0.5920    1.2730 H   0  0  0  0  0  0  0  0  0  0  0  0
   -0.0770   -4.8780   -1.0200 H   0  0  0  0  0  0  0  0  0  0  0  0
   -0.9550    3.1670   -0.1700 H   0  0  0  0  0  0  0  0  0  0  0  0
   -2.5800    1.4880    1.4270 H   0  0  0  0  0  0  0  0  0  0  0  0
   -3.3260    3.3320   -0.8870 H   0  0  0  0  0  0  0  0  0  0  0  0
   -4.4850    2.6130    0.2550 H   0  0  0  0  0  0  0  0  0  0  0  0
   -2.1340    4.3790    1.0690 H   0  0  0  0  0  0  0  0  0  0  0  0
   -5.1040    5.0080    0.7600 H   0  0  0  0  0  0  0  0  0  0  0  0
   -3.9080    6.0890    1.5140 H   0  0  0  0  0  0  0  0  0  0  0  0
   -3.7750    5.6820   -0.2140 H   0  0  0  0  0  0  0  0  0  0  0  0
   -2.8970    2.7640    2.7890 H   0  0  0  0  0  0  0  0  0  0  0  0
   -3.3210    4.4320    3.2450 H   0  0  0  0  0  0  0  0  0  0  0  0
   -4.5690    3.3440    2.5920 H   0  0  0  0  0  0  0  0  0  0  0  0
   -3.8330   -0.4200    0.8880 H   0  0  0  0  0  0  0  0  0  0  0  0
   -3.1760   -1.3940   -1.8550 H   0  0  0  0  0  0  0  0  0  0  0  0
   -3.4100   -2.6530    0.7730 H   0  0  0  0  0  0  0  0  0  0  0  0
   -4.4470   -3.4670   -0.4230 H   0  0  0  0  0  0  0  0  0  0  0  0
   -2.6410   -4.4290   -1.3760 H   0  0  0  0  0  0  0  0  0  0  0  0
   -1.9060   -2.8300   -1.6490 H   0  0  0  0  0  0  0  0  0  0  0  0
   -5.5330   -2.2600   -2.0490 H   0  0  0  0  0  0  0  0  0  0  0  0
   -5.9360   -1.3900   -0.5490 H   0  0  0  0  0  0  0  0  0  0  0  0
   -6.4010   -0.0790   -2.4900 H   0  0  0  0  0  0  0  0  0  0  0  0
 32 33  1  0  0  0  0
 27 32  1  0  0  0  0
 30 31  2  0  0  0  0
 27 28  1  0  0  0  0
 26 27  1  0  0  0  0
 28 29  1  0  0  0  0
 29 30  1  0  0  0  0
  3 30  1  0  0  0  0
  3  4  1  0  0  0  0
  4  5  1  0  0  0  0
 20 26  1  0  0  0  0
 20 21  2  0  0  0  0
  5  6  1  0  0  0  0
 19 20  1  0  0  0  0
 19 22  1  0  0  0  0
 22 23  1  0  0  0  0
 18 19  1  0  0  0  0
  6  7  1  0  0  0  0
 23 24  1  0  0  0  0
  7  8  1  0  0  0  0
  2 18  1  0  0  0  0
 23 25  1  0  0  0  0
  1  2  2  0  0  0  0
  2  9  1  0  0  0  0
  9 10  1  0  0  0  0
  8 10  1  0  0  0  0
 10 11  1  0  0  0  0
 11 17  2  0  0  0  0
 11 12  1  0  0  0  0
 15 17  1  0  0  0  0
 12 13  2  0  0  0  0
 15 16  1  0  0  0  0
 14 15  2  0  0  0  0
 13 14  1  0  0  0  0
  3 49  1  0  0  0  0
  4 34  1  0  0  0  0
  4 35  1  0  0  0  0
  5 36  1  0  0  0  0
  5 37  1  0  0  0  0
  6 38  1  0  0  0  0
  6 39  1  0  0  0  0
  7 40  1  0  0  0  0
  7 41  1  0  0  0  0
  8 42  1  0  0  0  0
  8 43  1  0  0  0  0
 10 44  1  0  0  0  0
 12 45  1  0  0  0  0
 13 46  1  0  0  0  0
 14 47  1  0  0  0  0
 17 48  1  0  0  0  0
 18 50  1  0  0  0  0
 19 51  1  0  0  0  0
 22 52  1  0  0  0  0
 22 53  1  0  0  0  0
 23 54  1  0  0  0  0
 24 55  1  0  0  0  0
 24 56  1  0  0  0  0
 24 57  1  0  0  0  0
 25 58  1  0  0  0  0
 25 59  1  0  0  0  0
 25 60  1  0  0  0  0
 26 61  1  0  0  0  0
 27 62  1  0  0  0  0
 32 67  1  0  0  0  0
 32 68  1  0  0  0  0
 28 63  1  0  0  0  0
 28 64  1  0  0  0  0
 29 65  1  0  0  0  0
 29 66  1  0  0  0  0
 33 69  1  0  0  0  0
M  END
> <OPENEYE_ISO_SMILES>
CC(C)C[C@H]1C(=O)N[C@@H](CCC(=O)NCCCCC[C@H](OC(=O)N1)c2cccc(c2)Cl)CO

> <OPENEYE_INCHI>
InChI=1S/C24H36ClN3O5/c1-16(2)13-20-23(31)27-19(15-29)10-11-22(30)26-12-5-3-4-9-21(33-24(32)28-20)17-7-6-8-18(25)14-17/h6-8,14,16,19-21,29H,3-5,9-13,15H2,1-2H3,(H,26,30)(H,27,31)(H,28,32)/t19-,20-,21-/m0/s1

> <OPENEYE_INCHIKEY>
QEKFPTDBWSLGJK-ACRUOGEOSA-N

> <FORMULA>
C24H36ClN3O5

$$$$
