EIC
  -OEChem-02242320023D

 52 51  0     0  0  0  0  0  0999 V2000
    1.4150    0.0580    7.5170 C   0  0  0  0  0  0  0  0  0  0  0  0
    1.1240   -0.6880    6.2410 C   0  0  0  0  0  0  0  0  0  0  0  0
    0.2350    0.1700    5.3390 C   0  0  0  0  0  0  0  0  0  0  0  0
   -0.0600   -0.5870    4.0430 C   0  0  0  0  0  0  0  0  0  0  0  0
   -0.9500    0.2710    3.1420 C   0  0  0  0  0  0  0  0  0  0  0  0
   -1.2460   -0.4860    1.8460 C   0  0  0  0  0  0  0  0  0  0  0  0
   -2.1350    0.3720    0.9450 C   0  0  0  0  0  0  0  0  0  0  0  0
   -2.4310   -0.3850   -0.3500 C   0  0  0  0  0  0  0  0  0  0  0  0
   -3.3070    0.4600   -1.2380 C   0  0  0  0  0  0  0  0  0  0  0  0
   -2.9500    0.6970   -2.4760 C   0  0  0  0  0  0  0  0  0  0  0  0
   -1.7490   -0.0010   -3.0610 C   0  0  0  0  0  0  0  0  0  0  0  0
   -2.1380   -0.6710   -4.3540 C   0  0  0  0  0  0  0  0  0  0  0  0
   -1.4510   -0.4370   -5.4450 C   0  0  0  0  0  0  0  0  0  0  0  0
   -0.1830    0.3730   -5.3780 C   0  0  0  0  0  0  0  0  0  0  0  0
    0.9550   -0.4040   -6.0400 C   0  0  0  0  0  0  0  0  0  0  0  0
    2.2420    0.4190   -5.9720 C   0  0  0  0  0  0  0  0  0  0  0  0
    3.3810   -0.3580   -6.6350 C   0  0  0  0  0  0  0  0  0  0  0  0
    4.6690    0.4640   -6.5670 C   0  0  0  0  0  0  0  0  0  0  0  0
    0.9590    1.1630    7.6880 O   0  0  0  0  0  0  0  0  0  0  0  0
    2.1820   -0.5040    8.4640 O   0  0  0  0  0  0  0  0  0  0  0  0
    0.6110   -1.6210    6.4740 H   0  0  0  0  0  0  0  0  0  0  0  0
    2.0590   -0.9060    5.7260 H   0  0  0  0  0  0  0  0  0  0  0  0
    0.7470    1.1030    5.1050 H   0  0  0  0  0  0  0  0  0  0  0  0
   -0.7000    0.3890    5.8540 H   0  0  0  0  0  0  0  0  0  0  0  0
   -0.5730   -1.5200    4.2770 H   0  0  0  0  0  0  0  0  0  0  0  0
    0.8740   -0.8060    3.5290 H   0  0  0  0  0  0  0  0  0  0  0  0
   -0.4370    1.2040    2.9080 H   0  0  0  0  0  0  0  0  0  0  0  0
   -1.8850    0.4900    3.6570 H   0  0  0  0  0  0  0  0  0  0  0  0
   -1.7580   -1.4190    2.0800 H   0  0  0  0  0  0  0  0  0  0  0  0
   -0.3100   -0.7050    1.3310 H   0  0  0  0  0  0  0  0  0  0  0  0
   -1.6220    1.3050    0.7110 H   0  0  0  0  0  0  0  0  0  0  0  0
   -3.0700    0.5910    1.4590 H   0  0  0  0  0  0  0  0  0  0  0  0
   -2.9440   -1.3180   -0.1160 H   0  0  0  0  0  0  0  0  0  0  0  0
   -1.4950   -0.6040   -0.8650 H   0  0  0  0  0  0  0  0  0  0  0  0
   -4.2280    0.8710   -0.8540 H   0  0  0  0  0  0  0  0  0  0  0  0
   -3.5160    1.3920   -3.0780 H   0  0  0  0  0  0  0  0  0  0  0  0
   -1.3870   -0.7500   -2.3580 H   0  0  0  0  0  0  0  0  0  0  0  0
   -0.9620    0.7280   -3.2520 H   0  0  0  0  0  0  0  0  0  0  0  0
   -2.9820   -1.3430   -4.3810 H   0  0  0  0  0  0  0  0  0  0  0  0
   -1.7940   -0.8260   -6.3920 H   0  0  0  0  0  0  0  0  0  0  0  0
    0.0680    0.5680   -4.3350 H   0  0  0  0  0  0  0  0  0  0  0  0
   -0.3290    1.3190   -5.9000 H   0  0  0  0  0  0  0  0  0  0  0  0
    0.7030   -0.5990   -7.0830 H   0  0  0  0  0  0  0  0  0  0  0  0
    1.1000   -1.3500   -5.5190 H   0  0  0  0  0  0  0  0  0  0  0  0
    2.4940    0.6140   -4.9300 H   0  0  0  0  0  0  0  0  0  0  0  0
    2.0970    1.3650   -6.4940 H   0  0  0  0  0  0  0  0  0  0  0  0
    3.1290   -0.5540   -7.6780 H   0  0  0  0  0  0  0  0  0  0  0  0
    3.5270   -1.3040   -6.1130 H   0  0  0  0  0  0  0  0  0  0  0  0
    5.4800   -0.0890   -7.0390 H   0  0  0  0  0  0  0  0  0  0  0  0
    4.5230    1.4100   -7.0890 H   0  0  0  0  0  0  0  0  0  0  0  0
    4.9200    0.6590   -5.5250 H   0  0  0  0  0  0  0  0  0  0  0  0
    2.3690   -0.0250    9.2820 H   0  0  0  0  0  0  0  0  0  0  0  0
  1  2  1  0  0  0  0
  1 19  2  0  0  0  0
  1 20  1  0  0  0  0
  2  3  1  0  0  0  0
  2 21  1  0  0  0  0
  2 22  1  0  0  0  0
  3  4  1  0  0  0  0
  3 23  1  0  0  0  0
  3 24  1  0  0  0  0
  4  5  1  0  0  0  0
  4 25  1  0  0  0  0
  4 26  1  0  0  0  0
  5  6  1  0  0  0  0
  5 27  1  0  0  0  0
  5 28  1  0  0  0  0
  6  7  1  0  0  0  0
  6 29  1  0  0  0  0
  6 30  1  0  0  0  0
  7  8  1  0  0  0  0
  7 31  1  0  0  0  0
  7 32  1  0  0  0  0
  8  9  1  0  0  0  0
  8 33  1  0  0  0  0
  8 34  1  0  0  0  0
  9 10  2  0  0  0  0
  9 35  1  0  0  0  0
 10 11  1  0  0  0  0
 10 36  1  0  0  0  0
 11 12  1  0  0  0  0
 11 37  1  0  0  0  0
 11 38  1  0  0  0  0
 12 13  2  0  0  0  0
 12 39  1  0  0  0  0
 13 14  1  0  0  0  0
 13 40  1  0  0  0  0
 14 15  1  0  0  0  0
 14 41  1  0  0  0  0
 14 42  1  0  0  0  0
 15 16  1  0  0  0  0
 15 43  1  0  0  0  0
 15 44  1  0  0  0  0
 16 17  1  0  0  0  0
 16 45  1  0  0  0  0
 16 46  1  0  0  0  0
 17 18  1  0  0  0  0
 17 47  1  0  0  0  0
 17 48  1  0  0  0  0
 18 49  1  0  0  0  0
 18 50  1  0  0  0  0
 18 51  1  0  0  0  0
 20 52  1  0  0  0  0
M  END
> <OPENEYE_ISO_SMILES>
CCCCC/C=C\C/C=C\CCCCCCCC(=O)O

> <OPENEYE_INCHI>
InChI=1S/C18H32O2/c1-2-3-4-5-6-7-8-9-10-11-12-13-14-15-16-17-18(19)20/h6-7,9-10H,2-5,8,11-17H2,1H3,(H,19,20)/b7-6-,10-9-

> <OPENEYE_INCHIKEY>
OYHQOLUKZRVURQ-HZJYTTRNSA-N

> <FORMULA>
C18H32O2

$$$$
