U0P
  -OEChem-02242320043D

 30 31  0     0  0  0  0  0  0999 V2000
    1.3710    0.4140   -0.4700 C   0  0  0  0  0  0  0  0  0  0  0  0
    2.4670    0.2500    0.2980 N   0  0  0  0  0  0  0  0  0  0  0  0
    3.5260   -0.6690   -0.1250 C   0  0  0  0  0  0  0  0  0  0  0  0
    4.9380   -0.4110    0.4050 C   0  0  0  0  0  0  0  0  0  0  0  0
    0.5280    2.0000    1.1760 C   0  0  0  0  0  0  0  0  0  0  0  0
   -0.7950    1.4380   -0.9150 C   0  0  0  0  0  0  0  0  0  0  0  0
   -1.8470    0.4380   -0.5080 C   0  0  0  0  0  0  0  0  0  0  0  0
   -2.9150    0.6520    0.3930 C   0  0  0  0  0  0  0  0  0  0  0  0
   -3.5650   -0.5360    0.4170 C   0  0  0  0  0  0  0  0  0  0  0  0
   -4.7940   -0.8760    1.2210 C   0  0  0  0  0  0  0  0  0  0  0  0
    4.1250   -1.5930    0.9370 C   0  0  0  0  0  0  0  0  0  0  0  0
    0.3960    1.2600   -0.0810 N   0  0  0  0  0  0  0  0  0  0  0  0
   -1.9560   -0.7910   -0.9220 N   0  0  0  0  0  0  0  0  0  0  0  0
   -2.9010   -1.3500   -0.4150 O   0  0  0  0  0  0  0  0  0  0  0  0
    1.2640   -0.1970   -1.5150 O   0  0  0  0  0  0  0  0  0  0  0  0
    2.5540    0.7410    1.1300 H   0  0  0  0  0  0  0  0  0  0  0  0
    3.4330   -1.0600   -1.1380 H   0  0  0  0  0  0  0  0  0  0  0  0
    5.7740   -0.6330   -0.2590 H   0  0  0  0  0  0  0  0  0  0  0  0
    5.0790    0.4420    1.0690 H   0  0  0  0  0  0  0  0  0  0  0  0
    1.0260    2.9510    0.9870 H   0  0  0  0  0  0  0  0  0  0  0  0
   -0.4620    2.1850    1.5940 H   0  0  0  0  0  0  0  0  0  0  0  0
    1.1170    1.4160    1.8830 H   0  0  0  0  0  0  0  0  0  0  0  0
   -0.5320    1.2830   -1.9610 H   0  0  0  0  0  0  0  0  0  0  0  0
   -1.1830    2.4480   -0.7830 H   0  0  0  0  0  0  0  0  0  0  0  0
   -3.1560    1.5530    0.9370 H   0  0  0  0  0  0  0  0  0  0  0  0
   -5.6850   -0.6480    0.6370 H   0  0  0  0  0  0  0  0  0  0  0  0
   -4.7840   -1.9370    1.4690 H   0  0  0  0  0  0  0  0  0  0  0  0
   -4.8010   -0.2880    2.1390 H   0  0  0  0  0  0  0  0  0  0  0  0
    3.7310   -1.5170    1.9500 H   0  0  0  0  0  0  0  0  0  0  0  0
    4.4260   -2.5930    0.6230 H   0  0  0  0  0  0  0  0  0  0  0  0
  5 12  1  0  0  0  0
  6  7  1  0  0  0  0
  7  8  1  0  0  0  0
  8  9  2  0  0  0  0
  9 10  1  0  0  0  0
  9 14  1  0  0  0  0
 13 14  1  0  0  0  0
  6 12  1  0  0  0  0
  1 12  1  0  0  0  0
  1 15  2  0  0  0  0
  1  2  1  0  0  0  0
  2  3  1  0  0  0  0
  3 11  1  0  0  0  0
  4 11  1  0  0  0  0
  7 13  2  0  0  0  0
  3  4  1  0  0  0  0
  2 16  1  0  0  0  0
  3 17  1  0  0  0  0
  4 18  1  0  0  0  0
  4 19  1  0  0  0  0
  5 20  1  0  0  0  0
  5 21  1  0  0  0  0
  5 22  1  0  0  0  0
  6 23  1  0  0  0  0
  6 24  1  0  0  0  0
  8 25  1  0  0  0  0
 10 26  1  0  0  0  0
 10 27  1  0  0  0  0
 10 28  1  0  0  0  0
 11 29  1  0  0  0  0
 11 30  1  0  0  0  0
M  END
> <OPENEYE_ISO_SMILES>
Cc1cc(no1)CN(C)C(=O)NC2CC2

> <OPENEYE_INCHI>
InChI=1S/C10H15N3O2/c1-7-5-9(12-15-7)6-13(2)10(14)11-8-3-4-8/h5,8H,3-4,6H2,1-2H3,(H,11,14)

> <OPENEYE_INCHIKEY>
QKUCRJSBLDVNFL-UHFFFAOYSA-N

> <FORMULA>
C10H15N3O2

$$$$
