R0R
  -OEChem-02242320033D

 40 44  0     1  0  0  0  0  0999 V2000
   -0.7320   -0.5170    0.0260 N   0  0  2  0  0  0  0  0  0  0  0  0
   -3.1980    1.2930   -1.5650 C   0  0  0  0  0  0  0  0  0  0  0  0
   -4.1900   -0.4490   -1.4530 C   0  0  0  0  0  0  0  0  0  0  0  0
   -2.9090    0.0220   -0.7820 C   0  0  0  0  0  0  0  0  0  0  0  0
   -1.6260   -0.7320   -1.1450 C   0  0  0  0  0  0  0  0  0  0  0  0
    0.8350   -3.7200    0.2480 C   0  0  0  0  0  0  0  0  0  0  0  0
   -3.8710    2.0640    1.7120 O   0  0  0  0  0  0  0  0  0  0  0  0
    2.5530   -2.1900    0.1270 C   0  0  0  0  0  0  0  0  0  0  0  0
    1.9740    1.4380   -0.1340 C   0  0  0  0  0  0  0  0  0  0  0  0
   -1.8180    2.3280    0.9360 O   0  0  0  0  0  0  0  0  0  0  0  0
    2.9400    2.4180   -0.2100 C   0  0  0  0  0  0  0  0  0  0  0  0
    4.2850    2.0760   -0.1920 C   0  0  0  0  0  0  0  0  0  0  0  0
    4.6710    0.7540   -0.0970 C   0  0  0  0  0  0  0  0  0  0  0  0
    3.7100   -0.2480   -0.0190 C   0  0  0  0  0  0  0  0  0  0  0  0
    2.3500    0.1010   -0.0390 C   0  0  0  0  0  0  0  0  0  0  0  0
    1.6000   -1.1620    0.0570 C   0  0  0  0  0  0  0  0  0  0  0  0
    0.2410   -1.4970    0.0930 C   0  0  0  0  0  0  0  0  0  0  0  0
   -1.6390   -0.5850    1.2020 C   0  0  0  0  0  0  0  0  0  0  0  0
   -2.9310    0.1320    0.7440 C   0  0  1  0  0  0  0  0  0  0  0  0
   -2.9080    1.5790    1.1660 C   0  0  0  0  0  0  0  0  0  0  0  0
   -3.9280    0.4910   -2.5060 O   0  0  0  0  0  0  0  0  0  0  0  0
    5.2240    3.0450   -0.2680 F   0  0  0  0  0  0  0  0  0  0  0  0
   -4.0580   -0.5120    1.2640 F   0  0  0  0  0  0  0  0  0  0  0  0
    3.8040   -1.6260    0.0810 N   0  0  0  0  0  0  0  0  0  0  0  0
    2.1220   -3.4480    0.2220 N   0  0  0  0  0  0  0  0  0  0  0  0
   -0.0920   -2.7830    0.1840 N   0  0  0  0  0  0  0  0  0  0  0  0
   -3.8230    2.0030   -1.0230 H   0  0  0  0  0  0  0  0  0  0  0  0
   -2.3060    1.7540   -1.9880 H   0  0  0  0  0  0  0  0  0  0  0  0
   -4.1520   -1.4880   -1.7790 H   0  0  0  0  0  0  0  0  0  0  0  0
   -5.0890   -0.2200   -0.8800 H   0  0  0  0  0  0  0  0  0  0  0  0
   -1.1810   -0.3140   -2.0470 H   0  0  0  0  0  0  0  0  0  0  0  0
   -1.8320   -1.7940   -1.2770 H   0  0  0  0  0  0  0  0  0  0  0  0
    0.5250   -4.7520    0.3200 H   0  0  0  0  0  0  0  0  0  0  0  0
    0.9280    1.7070   -0.1490 H   0  0  0  0  0  0  0  0  0  0  0  0
   -1.8510    3.2500    1.2250 H   0  0  0  0  0  0  0  0  0  0  0  0
    2.6490    3.4560   -0.2850 H   0  0  0  0  0  0  0  0  0  0  0  0
    5.7200    0.4970   -0.0840 H   0  0  0  0  0  0  0  0  0  0  0  0
   -1.8510   -1.6220    1.4590 H   0  0  0  0  0  0  0  0  0  0  0  0
   -1.1960   -0.0660    2.0530 H   0  0  0  0  0  0  0  0  0  0  0  0
    4.6360   -2.1230    0.1130 H   0  0  0  0  0  0  0  0  0  0  0  0
 19 20  1  0  0  0  0
  7 20  2  0  0  0  0
 10 20  1  0  0  0  0
  4 19  1  0  0  0  0
 18 19  1  0  0  0  0
 19 23  1  0  0  0  0
  1 18  1  0  0  0  0
  1 17  1  0  0  0  0
  1  5  1  0  0  0  0
 17 26  2  0  0  0  0
 16 17  1  0  0  0  0
  8 16  2  0  0  0  0
 15 16  1  0  0  0  0
  9 15  2  0  0  0  0
 14 15  1  0  0  0  0
 13 14  2  0  0  0  0
 14 24  1  0  0  0  0
 12 13  1  0  0  0  0
 11 12  2  0  0  0  0
 12 22  1  0  0  0  0
  9 11  1  0  0  0  0
  8 24  1  0  0  0  0
  8 25  1  0  0  0  0
  6 25  2  0  0  0  0
  6 26  1  0  0  0  0
  4  5  1  0  0  0  0
  3  4  1  0  0  0  0
  2  4  1  0  0  0  0
  2 21  1  0  0  0  0
  3 21  1  0  0  0  0
  2 27  1  0  0  0  0
  2 28  1  0  0  0  0
  3 29  1  0  0  0  0
  3 30  1  0  0  0  0
  5 31  1  0  0  0  0
  5 32  1  0  0  0  0
  6 33  1  0  0  0  0
  9 34  1  0  0  0  0
 10 35  1  0  0  0  0
 11 36  1  0  0  0  0
 13 37  1  0  0  0  0
 18 38  1  0  0  0  0
 18 39  1  0  0  0  0
 24 40  1  0  0  0  0
M  END
> <OPENEYE_ISO_SMILES>
c1cc2c(cc1F)[nH]c3c2c(ncn3)[N@@]4C[C@](C5(C4)COC5)(C(=O)O)F

> <OPENEYE_INCHI>
InChI=1S/C17H14F2N4O3/c18-9-1-2-10-11(3-9)22-13-12(10)14(21-8-20-13)23-4-16(6-26-7-16)17(19,5-23)15(24)25/h1-3,8H,4-7H2,(H,24,25)(H,20,21,22)/t17-/m1/s1

> <OPENEYE_INCHIKEY>
SKYVYAVECIKOMJ-QGZVFWFLSA-N

> <FORMULA>
C17H14F2N4O3

$$$$
