R0W
  -OEChem-02242320033D

 40 44  0     1  0  0  0  0  0999 V2000
    2.8960    1.5750    1.1310 C   0  0  0  0  0  0  0  0  0  0  0  0
    2.9120    0.1230    0.7300 C   0  0  1  0  0  0  0  0  0  0  0  0
    1.6150   -0.5800    1.1930 C   0  0  0  0  0  0  0  0  0  0  0  0
    3.9540    0.4500   -2.4470 O   0  0  0  0  0  0  0  0  0  0  0  0
    1.8470    2.1710    1.1990 O   0  0  0  0  0  0  0  0  0  0  0  0
   -2.9350    2.4390   -0.2320 C   0  0  0  0  0  0  0  0  0  0  0  0
   -1.9770    1.4520   -0.1510 C   0  0  0  0  0  0  0  0  0  0  0  0
   -2.5840   -2.1690    0.1420 C   0  0  0  0  0  0  0  0  0  0  0  0
   -0.8780   -3.7120    0.2690 C   0  0  0  0  0  0  0  0  0  0  0  0
    1.6120   -0.7640   -1.1510 C   0  0  0  0  0  0  0  0  0  0  0  0
    2.8990   -0.0100   -0.7970 C   0  0  0  0  0  0  0  0  0  0  0  0
    3.1520    1.2790   -1.5800 C   0  0  0  0  0  0  0  0  0  0  0  0
    4.1820   -0.5500   -1.4300 C   0  0  0  0  0  0  0  0  0  0  0  0
   -0.2670   -1.4960    0.0890 C   0  0  0  0  0  0  0  0  0  0  0  0
   -1.6230   -1.1490    0.0600 C   0  0  0  0  0  0  0  0  0  0  0  0
   -2.3630    0.1180   -0.0430 C   0  0  0  0  0  0  0  0  0  0  0  0
   -3.7260   -0.2190   -0.0170 C   0  0  0  0  0  0  0  0  0  0  0  0
   -4.6790    0.7890   -0.1010 C   0  0  0  0  0  0  0  0  0  0  0  0
   -4.2830    2.1090   -0.2010 C   0  0  0  0  0  0  0  0  0  0  0  0
   -5.2140    3.0840   -0.2810 F   0  0  0  0  0  0  0  0  0  0  0  0
    4.0350   -0.5180    1.2650 F   0  0  0  0  0  0  0  0  0  0  0  0
    0.7140   -0.5240    0.0120 N   0  0  1  0  0  0  0  0  0  0  0  0
   -3.8310   -1.5960    0.0940 N   0  0  0  0  0  0  0  0  0  0  0  0
   -2.1630   -3.4300    0.2450 N   0  0  0  0  0  0  0  0  0  0  0  0
    0.0560   -2.7830    0.1950 N   0  0  0  0  0  0  0  0  0  0  0  0
    4.0460    2.2050    1.4190 O   0  0  0  0  0  0  0  0  0  0  0  0
    1.8190   -1.6150    1.4650 H   0  0  0  0  0  0  0  0  0  0  0  0
    1.1730   -0.0450    2.0340 H   0  0  0  0  0  0  0  0  0  0  0  0
   -2.6360    3.4740   -0.3160 H   0  0  0  0  0  0  0  0  0  0  0  0
   -0.9290    1.7120   -0.1720 H   0  0  0  0  0  0  0  0  0  0  0  0
   -0.5760   -4.7450    0.3540 H   0  0  0  0  0  0  0  0  0  0  0  0
    1.1720   -0.3590   -2.0620 H   0  0  0  0  0  0  0  0  0  0  0  0
    1.8130   -1.8290   -1.2660 H   0  0  0  0  0  0  0  0  0  0  0  0
    3.7240    2.0260   -1.0290 H   0  0  0  0  0  0  0  0  0  0  0  0
    2.2610    1.6870   -2.0580 H   0  0  0  0  0  0  0  0  0  0  0  0
    4.0990   -1.5750   -1.7910 H   0  0  0  0  0  0  0  0  0  0  0  0
    5.0770   -0.3770   -0.8330 H   0  0  0  0  0  0  0  0  0  0  0  0
   -5.7300    0.5420   -0.0820 H   0  0  0  0  0  0  0  0  0  0  0  0
   -4.6670   -2.0860    0.1330 H   0  0  0  0  0  0  0  0  0  0  0  0
    3.9850    3.1360    1.6710 H   0  0  0  0  0  0  0  0  0  0  0  0
  1  2  1  0  0  0  0
  1  5  2  0  0  0  0
  1 26  1  0  0  0  0
  2 11  1  0  0  0  0
  2  3  1  0  0  0  0
  2 21  1  0  0  0  0
  3 22  1  0  0  0  0
 14 22  1  0  0  0  0
 10 22  1  0  0  0  0
 14 25  2  0  0  0  0
 14 15  1  0  0  0  0
  8 15  2  0  0  0  0
 15 16  1  0  0  0  0
  7 16  2  0  0  0  0
 16 17  1  0  0  0  0
 17 18  2  0  0  0  0
 17 23  1  0  0  0  0
 18 19  1  0  0  0  0
  6 19  2  0  0  0  0
 19 20  1  0  0  0  0
  6  7  1  0  0  0  0
  8 23  1  0  0  0  0
  8 24  1  0  0  0  0
  9 24  2  0  0  0  0
  9 25  1  0  0  0  0
 10 11  1  0  0  0  0
 11 13  1  0  0  0  0
 11 12  1  0  0  0  0
  4 12  1  0  0  0  0
  4 13  1  0  0  0  0
  3 27  1  0  0  0  0
  3 28  1  0  0  0  0
  6 29  1  0  0  0  0
  7 30  1  0  0  0  0
  9 31  1  0  0  0  0
 10 32  1  0  0  0  0
 10 33  1  0  0  0  0
 12 34  1  0  0  0  0
 12 35  1  0  0  0  0
 13 36  1  0  0  0  0
 13 37  1  0  0  0  0
 18 38  1  0  0  0  0
 23 39  1  0  0  0  0
 26 40  1  0  0  0  0
M  END
> <OPENEYE_ISO_SMILES>
c1cc2c(cc1F)[nH]c3c2c(ncn3)[N@]4C[C@@](C5(C4)COC5)(C(=O)O)F

> <OPENEYE_INCHI>
InChI=1S/C17H14F2N4O3/c18-9-1-2-10-11(3-9)22-13-12(10)14(21-8-20-13)23-4-16(6-26-7-16)17(19,5-23)15(24)25/h1-3,8H,4-7H2,(H,24,25)(H,20,21,22)/t17-/m0/s1

> <OPENEYE_INCHIKEY>
SKYVYAVECIKOMJ-KRWDZBQOSA-N

> <FORMULA>
C17H14F2N4O3

$$$$
