2RI
  -OEChem-02242320003D

 64 68  0     1  0  0  0  0  0999 V2000
    0.5880   -0.6080    0.6370 C   0  0  1  0  0  0  0  0  0  0  0  0
   -0.3650    2.8240    1.8820 C   0  0  0  0  0  0  0  0  0  0  0  0
   -3.8180   -0.0400    0.6380 C   0  0  0  0  0  0  0  0  0  0  0  0
   -5.8710    0.8430    0.6300 C   0  0  0  0  0  0  0  0  0  0  0  0
   -6.6010    0.6120   -1.6670 C   0  0  0  0  0  0  0  0  0  0  0  0
   -8.0430    1.6140   -0.0370 C   0  0  0  0  0  0  0  0  0  0  0  0
   -4.2760   -0.1540   -0.6830 C   0  0  0  0  0  0  0  0  0  0  0  0
    7.5020    1.3580    0.2560 C   0  0  0  0  0  0  0  0  0  0  0  0
    7.4620    0.2910   -0.6260 C   0  0  0  0  0  0  0  0  0  0  0  0
    6.2540   -0.1220   -1.1550 C   0  0  0  0  0  0  0  0  0  0  0  0
    5.0860    0.5290   -0.8030 C   0  0  0  0  0  0  0  0  0  0  0  0
    3.7690    0.0770   -1.3800 C   0  0  2  0  0  0  0  0  0  0  0  0
    3.3760    0.9980   -2.5360 C   0  0  0  0  0  0  0  0  0  0  0  0
    1.6500   -0.6620   -0.4310 C   0  0  0  0  0  0  0  0  0  0  0  0
    0.0200    0.7860    0.7110 C   0  0  0  0  0  0  0  0  0  0  0  0
    0.1700    1.5450    1.8610 C   0  0  0  0  0  0  0  0  0  0  0  0
   -1.0250    3.2960    0.7630 C   0  0  0  0  0  0  0  0  0  0  0  0
   -0.6440    1.3290   -0.3730 C   0  0  0  0  0  0  0  0  0  0  0  0
   -1.7560   -1.0840   -0.0190 C   0  0  0  0  0  0  0  0  0  0  0  0
   -2.5520   -0.5110    0.9600 C   0  0  0  0  0  0  0  0  0  0  0  0
   -5.6310    0.4290   -0.6870 C   0  0  0  0  0  0  0  0  0  0  0  0
   -7.8030    1.2030   -1.3380 C   0  0  0  0  0  0  0  0  0  0  0  0
   -7.0850    1.4430    0.9410 C   0  0  0  0  0  0  0  0  0  0  0  0
   -3.4700   -0.7310   -1.6600 C   0  0  0  0  0  0  0  0  0  0  0  0
   -2.2160   -1.1930   -1.3280 C   0  0  0  0  0  0  0  0  0  0  0  0
   -0.2360   -2.8800    0.3300 C   0  0  0  0  0  0  0  0  0  0  0  0
    1.1110   -3.3920    0.7720 C   0  0  1  0  0  0  0  0  0  0  0  0
    1.2630   -3.1880    2.2810 C   0  0  0  0  0  0  0  0  0  0  0  0
    5.1250    1.5940    0.0780 C   0  0  0  0  0  0  0  0  0  0  0  0
    6.3320    2.0090    0.6080 C   0  0  0  0  0  0  0  0  0  0  0  0
    8.6820    1.7590    0.7780 F   0  0  0  0  0  0  0  0  0  0  0  0
    2.7370    0.1290   -0.3410 N   0  0  0  0  0  0  0  0  0  0  0  0
   -1.1440    2.5480   -0.3160 N   0  0  0  0  0  0  0  0  0  0  0  0
   -0.4810   -1.5550    0.3120 N   0  0  0  0  0  0  0  0  0  0  0  0
   -4.7810    0.5550    1.3760 O   0  0  0  0  0  0  0  0  0  0  0  0
    1.2150   -4.7840    0.4670 O   0  0  0  0  0  0  0  0  0  0  0  0
   -1.1000   -3.6610   -0.0100 O   0  0  0  0  0  0  0  0  0  0  0  0
    1.5250   -1.4170   -1.3720 O   0  0  0  0  0  0  0  0  0  0  0  0
    1.0270   -0.8730    1.5990 H   0  0  0  0  0  0  0  0  0  0  0  0
   -0.2710    3.4420    2.7630 H   0  0  0  0  0  0  0  0  0  0  0  0
   -6.4140    0.2920   -2.6820 H   0  0  0  0  0  0  0  0  0  0  0  0
   -8.9840    2.0810    0.2120 H   0  0  0  0  0  0  0  0  0  0  0  0
    8.3740   -0.2170   -0.9010 H   0  0  0  0  0  0  0  0  0  0  0  0
    6.2220   -0.9530   -1.8430 H   0  0  0  0  0  0  0  0  0  0  0  0
    3.8640   -0.9450   -1.7460 H   0  0  0  0  0  0  0  0  0  0  0  0
    3.2800    2.0200   -2.1700 H   0  0  0  0  0  0  0  0  0  0  0  0
    4.1430    0.9590   -3.3090 H   0  0  0  0  0  0  0  0  0  0  0  0
    2.4230    0.6710   -2.9540 H   0  0  0  0  0  0  0  0  0  0  0  0
    0.6910    1.1500    2.7210 H   0  0  0  0  0  0  0  0  0  0  0  0
   -1.4470    4.2900    0.7720 H   0  0  0  0  0  0  0  0  0  0  0  0
   -0.7550    0.7480   -1.2770 H   0  0  0  0  0  0  0  0  0  0  0  0
   -2.1870   -0.4290    1.9730 H   0  0  0  0  0  0  0  0  0  0  0  0
   -8.5600    1.3420   -2.0960 H   0  0  0  0  0  0  0  0  0  0  0  0
   -7.2840    1.7670    1.9520 H   0  0  0  0  0  0  0  0  0  0  0  0
   -3.8280   -0.8170   -2.6750 H   0  0  0  0  0  0  0  0  0  0  0  0
   -1.5890   -1.6420   -2.0850 H   0  0  0  0  0  0  0  0  0  0  0  0
    1.8960   -2.8450    0.2510 H   0  0  0  0  0  0  0  0  0  0  0  0
    1.0560   -2.1470    2.5300 H   0  0  0  0  0  0  0  0  0  0  0  0
    0.5610   -3.8340    2.8080 H   0  0  0  0  0  0  0  0  0  0  0  0
    2.2810   -3.4370    2.5800 H   0  0  0  0  0  0  0  0  0  0  0  0
    4.2120    2.1010    0.3520 H   0  0  0  0  0  0  0  0  0  0  0  0
    6.3620    2.8400    1.2960 H   0  0  0  0  0  0  0  0  0  0  0  0
    2.8370    0.7330    0.4110 H   0  0  0  0  0  0  0  0  0  0  0  0
    2.0590   -5.1810    0.7250 H   0  0  0  0  0  0  0  0  0  0  0  0
  8 31  1  0  0  0  0
  8 30  2  0  0  0  0
 29 30  1  0  0  0  0
  8  9  1  0  0  0  0
  6 23  2  0  0  0  0
  6 22  1  0  0  0  0
 11 29  2  0  0  0  0
  4 23  1  0  0  0  0
  5 22  2  0  0  0  0
  9 10  2  0  0  0  0
 10 11  1  0  0  0  0
 11 12  1  0  0  0  0
  4 35  1  0  0  0  0
  4 21  2  0  0  0  0
  5 21  1  0  0  0  0
 12 13  1  0  0  0  0
  3 35  1  0  0  0  0
 12 32  1  0  0  0  0
  7 21  1  0  0  0  0
  3  7  2  0  0  0  0
  3 20  1  0  0  0  0
  7 24  1  0  0  0  0
 14 38  2  0  0  0  0
 14 32  1  0  0  0  0
 19 20  2  0  0  0  0
  1 14  1  0  0  0  0
 24 25  2  0  0  0  0
 19 25  1  0  0  0  0
 19 34  1  0  0  0  0
  1 34  1  0  0  0  0
  1 15  1  0  0  0  0
 26 34  1  0  0  0  0
 15 18  2  0  0  0  0
 15 16  1  0  0  0  0
 18 33  1  0  0  0  0
  2 16  2  0  0  0  0
 17 33  2  0  0  0  0
  2 17  1  0  0  0  0
 26 27  1  0  0  0  0
 26 37  2  0  0  0  0
 27 28  1  0  0  0  0
 27 36  1  0  0  0  0
  1 39  1  0  0  0  0
  2 40  1  0  0  0  0
  5 41  1  0  0  0  0
  6 42  1  0  0  0  0
  9 43  1  0  0  0  0
 10 44  1  0  0  0  0
 12 45  1  0  0  0  0
 13 46  1  0  0  0  0
 13 47  1  0  0  0  0
 13 48  1  0  0  0  0
 16 49  1  0  0  0  0
 17 50  1  0  0  0  0
 18 51  1  0  0  0  0
 20 52  1  0  0  0  0
 22 53  1  0  0  0  0
 23 54  1  0  0  0  0
 24 55  1  0  0  0  0
 25 56  1  0  0  0  0
 27 57  1  0  0  0  0
 28 58  1  0  0  0  0
 28 59  1  0  0  0  0
 28 60  1  0  0  0  0
 29 61  1  0  0  0  0
 30 62  1  0  0  0  0
 32 63  1  0  0  0  0
 36 64  1  0  0  0  0
M  END
> <OPENEYE_ISO_SMILES>
C[C@@H](c1ccc(cc1)F)NC(=O)[C@@H](c2cccnc2)N(c3ccc4c5ccccc5oc4c3)C(=O)[C@@H](C)O

> <OPENEYE_INCHI>
InChI=1S/C30H26FN3O4/c1-18(20-9-11-22(31)12-10-20)33-29(36)28(21-6-5-15-32-17-21)34(30(37)19(2)35)23-13-14-25-24-7-3-4-8-26(24)38-27(25)16-23/h3-19,28,35H,1-2H3,(H,33,36)/t18-,19+,28+/m0/s1

> <OPENEYE_INCHIKEY>
ZZPWEZVCHNBBBZ-DORSKGMSSA-N

> <FORMULA>
C30H26FN3O4

$$$$
