NC3
  -OEChem-02242320033D

 30 30  0     0  0  0  0  0  0999 V2000
   -1.9050    0.1440    0.2400 C   0  0  0  0  0  0  0  0  0  0  0  0
   -0.5500    0.5960   -0.0830 N   0  0  0  0  0  0  0  0  0  0  0  0
    0.5120   -0.1640    0.2510 C   0  0  0  0  0  0  0  0  0  0  0  0
    1.7590    0.2520   -0.0460 N   0  0  0  0  0  0  0  0  0  0  0  0
    2.9130   -0.5730    0.3170 C   0  0  0  0  0  0  0  0  0  0  0  0
    4.1800    0.1120   -0.1240 C   0  0  0  0  0  0  0  0  0  0  0  0
    5.3710   -0.4640    0.1060 O   0  0  0  0  0  0  0  0  0  0  0  0
    0.3450   -1.2240    0.8220 O   0  0  0  0  0  0  0  0  0  0  0  0
    4.1250    1.1810   -0.6850 O   0  0  0  0  0  0  0  0  0  0  0  0
   -2.8340    1.3540    0.3500 C   0  0  0  0  0  0  0  0  0  0  0  0
   -4.2500    0.8820    0.6880 C   0  0  0  0  0  0  0  0  0  0  0  0
   -4.7540   -0.0490   -0.4160 C   0  0  0  0  0  0  0  0  0  0  0  0
   -3.8250   -1.2600   -0.5260 C   0  0  0  0  0  0  0  0  0  0  0  0
   -2.4090   -0.7880   -0.8640 C   0  0  0  0  0  0  0  0  0  0  0  0
   -1.8920   -0.3920    1.1900 H   0  0  0  0  0  0  0  0  0  0  0  0
   -0.4160    1.4420   -0.5380 H   0  0  0  0  0  0  0  0  0  0  0  0
    1.8920    1.0990   -0.5010 H   0  0  0  0  0  0  0  0  0  0  0  0
    2.8350   -1.5430   -0.1740 H   0  0  0  0  0  0  0  0  0  0  0  0
    2.9330   -0.7140    1.3980 H   0  0  0  0  0  0  0  0  0  0  0  0
    6.1840   -0.0240   -0.1770 H   0  0  0  0  0  0  0  0  0  0  0  0
   -2.4750    2.0180    1.1360 H   0  0  0  0  0  0  0  0  0  0  0  0
   -2.8470    1.8900   -0.6000 H   0  0  0  0  0  0  0  0  0  0  0  0
   -4.2370    0.3470    1.6370 H   0  0  0  0  0  0  0  0  0  0  0  0
   -4.9120    1.7450    0.7660 H   0  0  0  0  0  0  0  0  0  0  0  0
   -5.7620   -0.3860   -0.1760 H   0  0  0  0  0  0  0  0  0  0  0  0
   -4.7660    0.4860   -1.3660 H   0  0  0  0  0  0  0  0  0  0  0  0
   -3.8120   -1.7950    0.4240 H   0  0  0  0  0  0  0  0  0  0  0  0
   -4.1840   -1.9240   -1.3120 H   0  0  0  0  0  0  0  0  0  0  0  0
   -2.4220   -0.2520   -1.8130 H   0  0  0  0  0  0  0  0  0  0  0  0
   -1.7470   -1.6500   -0.9420 H   0  0  0  0  0  0  0  0  0  0  0  0
  1  2  1  0  0  0  0
  1 10  1  0  0  0  0
  1 14  1  0  0  0  0
  1 15  1  0  0  0  0
  2  3  1  0  0  0  0
  2 16  1  0  0  0  0
  3  4  1  0  0  0  0
  3  8  2  0  0  0  0
  4  5  1  0  0  0  0
  4 17  1  0  0  0  0
  5  6  1  0  0  0  0
  5 18  1  0  0  0  0
  5 19  1  0  0  0  0
  6  7  1  0  0  0  0
  6  9  2  0  0  0  0
  7 20  1  0  0  0  0
 10 11  1  0  0  0  0
 10 21  1  0  0  0  0
 10 22  1  0  0  0  0
 11 12  1  0  0  0  0
 11 23  1  0  0  0  0
 11 24  1  0  0  0  0
 12 13  1  0  0  0  0
 12 25  1  0  0  0  0
 12 26  1  0  0  0  0
 13 14  1  0  0  0  0
 13 27  1  0  0  0  0
 13 28  1  0  0  0  0
 14 29  1  0  0  0  0
 14 30  1  0  0  0  0
M  END
> <OPENEYE_ISO_SMILES>
C1CCC(CC1)NC(=O)NCC(=O)O

> <OPENEYE_INCHI>
InChI=1S/C9H16N2O3/c12-8(13)6-10-9(14)11-7-4-2-1-3-5-7/h7H,1-6H2,(H,12,13)(H2,10,11,14)

> <OPENEYE_INCHIKEY>
NVORCMBCUHQRDL-UHFFFAOYSA-N

> <FORMULA>
C9H16N2O3

$$$$
