@<TRIPOS>MOLECULE
/home/pku/3cl/gett_pdb/5RSS/5RSS_mol2/ligand/5RSS_NC3.pdb
 29 29 0 0 0
SMALL
GASTEIGER

@<TRIPOS>ATOM
      1  C1       -43.0460  -34.1920   -3.7540 C.3   201  NC3201      0.0246
      2  N2       -43.5820  -33.9210   -2.4570 N.am  201  NC3201     -0.2966
      3  C3       -43.0150  -32.8920   -1.6540 C.2   201  NC3201      0.3002
      4  N4       -43.5630  -32.7320   -0.3740 N.am  201  NC3201     -0.2934
      5  C5       -43.0290  -31.7470    0.5420 C.3   201  NC3201      0.0618
      6  C6       -43.1300  -32.2880    1.9440 C.2   201  NC3201      0.1046
      7  O7       -42.7870  -31.5850    2.8760 O.co2 201  NC3201     -0.3073
      8  O8       -42.1690  -32.1970   -2.0160 O.2   201  NC3201     -0.2528
      9  O9       -43.5840  -33.4350    2.1560 O.co2 201  NC3201     -0.8465
     10  C10      -44.0820  -34.3710   -4.8330 C.3   201  NC3201     -0.0345
     11  C11      -43.5000  -34.9180   -6.1100 C.3   201  NC3201     -0.0514
     12  C12      -42.6870  -36.1470   -5.8450 C.3   201  NC3201     -0.0529
     13  C13      -41.7260  -36.0520   -4.6780 C.3   201  NC3201     -0.0514
     14  C14      -42.3360  -35.4950   -3.4500 C.3   201  NC3201     -0.0345
     15  H1       -42.4030  -33.5130   -4.0120 H     201  NC3201      0.0499
     16  HN2      -44.2020  -34.4230   -2.1360 H     201  NC3201      0.1505
     17  HN4      -44.1850  -33.2630   -0.1100 H     201  NC3201      0.1506
     18  H51      -42.0990  -31.5710    0.3290 H     201  NC3201      0.0532
     19  H52      -43.5410  -30.9260    0.4720 H     201  NC3201      0.0532
     20 H101      -44.4890  -33.5100   -5.0060 H     201  NC3201      0.0283
     21 H102      -44.7620  -34.9850   -4.5130 H     201  NC3201      0.0283
     22 H111      -44.2220  -35.1420   -6.7180 H     201  NC3201      0.0266
     23 H112      -42.9330  -34.2430   -6.5150 H     201  NC3201      0.0266
     24 H121      -42.1700  -36.3400   -6.6430 H     201  NC3201      0.0265
     25 H122      -43.2730  -36.8930   -5.6750 H     201  NC3201      0.0265
     26 H131      -41.3920  -36.9410   -4.4800 H     201  NC3201      0.0266
     27 H132      -40.9820  -35.4860   -4.9370 H     201  NC3201      0.0266
     28 H141      -41.6410  -35.3350   -2.7930 H     201  NC3201      0.0283
     29 H142      -42.9770  -36.1310   -3.0960 H     201  NC3201      0.0283
@<TRIPOS>UNITY_ATOM_ATTR
9 1
charge -1
@<TRIPOS>BOND
     1    22    11    1
     2    24    12    1
     3    23    11    1
     4    11    12    1
     5    11    10    1
     6    12    25    1
     7    12    13    1
     8    20    10    1
     9    27    13    1
    10    10    21    1
    11    10     1    1
    12    13    26    1
    13    13    14    1
    14    15     1    1
    15     1    14    1
    16     1     2    1
    17    14    29    1
    18    14    28    1
    19     2    16    1
    20     2     3   am
    21     8     3    2
    22     3     4   am
    23     4    17    1
    24     4     5    1
    25    18     5    1
    26    19     5    1
    27     5     6    1
    28     6     9   ar
    29     6     7   ar
