@<TRIPOS>MOLECULE
/home/pku/3cl/gett_pdb/5RH3/5RH3_mol2/ligand/5RH3_UHA.pdb
 19 20 0 0 0
SMALL
GASTEIGER

@<TRIPOS>ATOM
      1  N1         7.1490    0.6220   17.2630 N.ar  1001  UHA1001    -0.2410
      2  C4         7.7720   -0.0360   18.2460 C.ar  1001  UHA1001     0.1151
      3  C5         6.0510    1.3150   17.5870 C.ar  1001  UHA1001     0.0987
      4  C6         5.5520    1.4030   18.8730 C.ar  1001  UHA1001     0.0177
      5  C7         6.2050    0.7440   19.9070 C.ar  1001  UHA1001    -0.0034
      6  C8         5.7570    0.9230   21.3350 C.3   1001  UHA1001     0.0325
      7  C10       11.5760   -0.1630   23.4100 C.ar  1001  UHA1001    -0.0038
      8  C13       13.4190   -1.2420   21.6780 C.ar  1001  UHA1001     0.0574
      9 CL         14.5890   -1.9870   20.6270 Cl    1001  UHA1001    -0.0823
     10  C12       13.8360   -0.2980   22.5960 C.ar  1001  UHA1001     0.0114
     11  C11       12.9050    0.2220   23.4860 C.ar  1001  UHA1001     0.0006
     12  C14       12.0990   -1.6350   21.5910 C.ar  1001  UHA1001     0.0076
     13  C9        11.1560   -1.0690   22.4420 C.ar  1001  UHA1001    -0.0130
     14  C1         9.6770   -1.3630   22.2210 C.3   1001  UHA1001     0.1008
     15  C          8.8540   -1.2940   23.5100 C.3   1001  UHA1001     0.0144
     16  C2         9.1840   -0.4220   21.1170 C.2   1001  UHA1001     0.2492
     17  O          9.8230    0.5770   20.7890 O.2   1001  UHA1001    -0.2726
     18  N          8.0020   -0.7640   20.5560 N.am  1001  UHA1001    -0.1777
     19  C3         7.3370   -0.0160   19.5700 C.ar  1001  UHA1001     0.0885
@<TRIPOS>BOND
     1     1     3   ar
     2     1     2   ar
     3     3     4   ar
     4     2    19   ar
     5     4     5   ar
     6    19     5   ar
     7    19    18    1
     8     5     6    1
     9    18    16   am
    10     9     8    1
    11    17    16    2
    12    16    14    1
    13    12     8   ar
    14    12    13   ar
    15     8    10   ar
    16    14    13    1
    17    14    15    1
    18    13     7   ar
    19    10    11   ar
    20     7    11   ar
