AYE
  -OEChem-02242320013D

 11 10  0     0  0  0  0  0  0999 V2000
   -0.6980   -0.2670   -0.3860 C   0  0  0  0  0  0  0  0  0  0  0  0
   -1.7860    0.0010    0.2910 C   0  0  0  0  0  0  0  0  0  0  0  0
    0.5430    0.5630   -0.1790 C   0  0  0  0  0  0  0  0  0  0  0  0
    1.6670   -0.3160    0.1710 N   0  0  0  0  0  0  0  0  0  0  0  0
   -0.6880   -1.0860   -1.0910 H   0  0  0  0  0  0  0  0  0  0  0  0
   -2.6750   -0.5940    0.1430 H   0  0  0  0  0  0  0  0  0  0  0  0
   -1.7940    0.8170    0.9990 H   0  0  0  0  0  0  0  0  0  0  0  0
    0.7760    1.1030   -1.0960 H   0  0  0  0  0  0  0  0  0  0  0  0
    0.3730    1.2750    0.6290 H   0  0  0  0  0  0  0  0  0  0  0  0
    2.5110    0.2170    0.3160 H   0  0  0  0  0  0  0  0  0  0  0  0
    1.4500   -0.8760    0.9820 H   0  0  0  0  0  0  0  0  0  0  0  0
  1  2  2  0  0  0  0
  1  3  1  0  0  0  0
  3  4  1  0  0  0  0
  1  5  1  0  0  0  0
  2  6  1  0  0  0  0
  2  7  1  0  0  0  0
  3  8  1  0  0  0  0
  3  9  1  0  0  0  0
  4 10  1  0  0  0  0
  4 11  1  0  0  0  0
M  END
> <OPENEYE_ISO_SMILES>
C=CCN

> <OPENEYE_INCHI>
InChI=1S/C3H7N/c1-2-3-4/h2H,1,3-4H2

> <OPENEYE_INCHIKEY>
VVJKKWFAADXIJK-UHFFFAOYSA-N

> <FORMULA>
C3H7N

$$$$
