@<TRIPOS>MOLECULE
/home/pku/3cl/gett_pdb/5RSO/5RSO_mol2/ligand/5RSO_TYZ.pdb
 21 21 0 0 0
SMALL
GASTEIGER

@<TRIPOS>ATOM
      1  O1       -45.2720  -29.0170    1.3590 O.co2 201  TYZ201     -0.5446
      2  O2       -43.9880  -28.9880    3.1180 O.co2 201  TYZ201     -0.5446
      3  C7       -45.1150  -28.9850    2.5950 C.2   201  TYZ201      0.0717
      4  C3       -46.3170  -29.0190    3.5080 C.ar  201  TYZ201     -0.0026
      5  C4       -46.1500  -29.0510    4.8700 C.ar  201  TYZ201     -0.0511
      6  C5       -47.2440  -29.1220    5.7160 C.ar  201  TYZ201     -0.0399
      7  C6       -48.5280  -29.1490    5.1990 C.ar  201  TYZ201      0.0334
      8  C1       -48.6740  -29.1150    3.8450 C.ar  201  TYZ201     -0.0399
      9  C2       -47.6020  -29.0620    2.9830 C.ar  201  TYZ201     -0.0511
     10  C8       -51.0350  -29.3560    5.6240 C.2   201  TYZ201      0.2141
     11  N        -49.6860  -29.2700    6.0990 N.am  201  TYZ201     -0.2857
     12  O4       -51.2620  -29.2570    4.5200 O.2   201  TYZ201     -0.2758
     13  C9       -52.1930  -29.5110    6.5520 C.3   201  TYZ201      0.0125
     14  H4       -45.2920  -29.0420    5.2280 H     201  TYZ201      0.0625
     15  H5       -47.1150  -29.1530    6.6370 H     201  TYZ201      0.0636
     16  HA       -49.5250  -29.1460    3.4910 H     201  TYZ201      0.0636
     17  H2       -47.7350  -29.0390    2.0630 H     201  TYZ201      0.0625
     18  HN       -49.5420  -29.3530    6.9430 H     201  TYZ201      0.1548
     19 H9C1      -52.2100  -28.7680    7.1750 H     201  TYZ201      0.0323
     20 H9C2      -52.1050  -30.3430    7.0430 H     201  TYZ201      0.0323
     21 H9C3      -53.0170  -29.5230    6.0410 H     201  TYZ201      0.0323
@<TRIPOS>UNITY_ATOM_ATTR
2 1
charge -1
@<TRIPOS>BOND
     1     1     3   ar
     2    17     9    1
     3     3     2   ar
     4     3     4    1
     5     9     4   ar
     6     9     8   ar
     7    16     8    1
     8     4     5   ar
     9     8     7   ar
    10    12    10    2
    11     5    14    1
    12     5     6   ar
    13     7     6   ar
    14     7    11    1
    15    10    11   am
    16    10    13    1
    17     6    15    1
    18    21    13    1
    19    11    18    1
    20    13    20    1
    21    13    19    1
