LQ6
  -OEChem-02242320033D

 52 55  0     1  0  0  0  0  0999 V2000
    2.2020   -0.7390    0.8530 N   0  0  0  0  0  0  0  0  0  0  0  0
    4.6500   -0.2100   -1.3250 N   0  0  0  0  0  0  0  0  0  0  0  0
   -0.9270    1.9500    0.9530 C   0  0  0  0  0  0  0  0  0  0  0  0
    1.4020    1.5630    0.8560 C   0  0  0  0  0  0  0  0  0  0  0  0
    2.4970    0.6130    1.3500 C   0  0  0  0  0  0  0  0  0  0  0  0
    0.8560   -1.2870    1.0810 C   0  0  0  0  0  0  0  0  0  0  0  0
   -0.1750   -0.2610    0.5980 C   0  0  2  0  0  0  0  0  0  0  0  0
   -3.3660   -2.3620    0.8330 C   0  0  0  0  0  0  0  0  0  0  0  0
   -3.7000   -5.9680   -0.0800 C   0  0  0  0  0  0  0  0  0  0  0  0
    3.1380   -1.4560    0.1990 C   0  0  0  0  0  0  0  0  0  0  0  0
    5.8310    0.3530   -1.6290 C   0  0  0  0  0  0  0  0  0  0  0  0
   -1.2510    2.2370   -0.3660 C   0  0  0  0  0  0  0  0  0  0  0  0
    0.0870    1.0330    1.2410 N   0  0  2  0  0  0  0  0  0  0  0  0
   -2.2510    3.1490   -0.6480 C   0  0  0  0  0  0  0  0  0  0  0  0
   -2.2610   -0.0540    1.6810 O   0  0  0  0  0  0  0  0  0  0  0  0
   -2.9280    3.7760    0.3840 C   0  0  0  0  0  0  0  0  0  0  0  0
   -3.6330   -3.6910    0.1750 C   0  0  0  0  0  0  0  0  0  0  0  0
   -3.3670   -4.8830    0.7120 C   0  0  0  0  0  0  0  0  0  0  0  0
   -4.2320   -5.6570   -1.2640 C   0  0  0  0  0  0  0  0  0  0  0  0
    4.4520   -0.8450   -0.1180 C   0  0  0  0  0  0  0  0  0  0  0  0
    5.4710   -0.9060    0.7780 C   0  0  0  0  0  0  0  0  0  0  0  0
    6.7530   -0.2880    0.4210 C   0  0  0  0  0  0  0  0  0  0  0  0
   -2.6060    3.4920    1.6990 C   0  0  0  0  0  0  0  0  0  0  0  0
   -1.6080    2.5810    1.9860 C   0  0  0  0  0  0  0  0  0  0  0  0
   -1.5600   -0.7320    0.9590 C   0  0  0  0  0  0  0  0  0  0  0  0
   -2.0200   -1.9050    0.4810 N   0  0  0  0  0  0  0  0  0  0  0  0
    6.8690    0.3250   -0.7750 N   0  0  0  0  0  0  0  0  0  0  0  0
    5.9640    0.9040   -2.7050 O   0  0  0  0  0  0  0  0  0  0  0  0
    7.6930   -0.3200    1.1940 O   0  0  0  0  0  0  0  0  0  0  0  0
    2.9060   -2.6020   -0.1290 O   0  0  0  0  0  0  0  0  0  0  0  0
   -4.3410   -3.9090   -1.4210 S   0  0  0  0  0  0  0  0  0  0  0  0
   -2.6580    3.5080   -2.2970 Cl  0  0  0  0  0  0  0  0  0  0  0  0
   -4.1820    4.9220    0.0270 Cl  0  0  0  0  0  0  0  0  0  0  0  0
    3.9220   -0.1660   -1.9650 H   0  0  0  0  0  0  0  0  0  0  0  0
    1.5430    2.5460    1.3060 H   0  0  0  0  0  0  0  0  0  0  0  0
    1.4560    1.6480   -0.2290 H   0  0  0  0  0  0  0  0  0  0  0  0
    2.5130    0.6060    2.4400 H   0  0  0  0  0  0  0  0  0  0  0  0
    3.4650    0.9400    0.9700 H   0  0  0  0  0  0  0  0  0  0  0  0
    0.7390   -2.2150    0.5220 H   0  0  0  0  0  0  0  0  0  0  0  0
    0.7140   -1.4750    2.1450 H   0  0  0  0  0  0  0  0  0  0  0  0
   -0.0990   -0.1510   -0.4840 H   0  0  0  0  0  0  0  0  0  0  0  0
   -4.0990   -1.6330    0.4890 H   0  0  0  0  0  0  0  0  0  0  0  0
   -3.4420   -2.4710    1.9150 H   0  0  0  0  0  0  0  0  0  0  0  0
   -3.5370   -6.9880    0.2340 H   0  0  0  0  0  0  0  0  0  0  0  0
   -0.7230    1.7480   -1.1710 H   0  0  0  0  0  0  0  0  0  0  0  0
   -2.9250   -4.9930    1.6920 H   0  0  0  0  0  0  0  0  0  0  0  0
   -4.5470   -6.3700   -2.0110 H   0  0  0  0  0  0  0  0  0  0  0  0
    5.3410   -1.3980    1.7310 H   0  0  0  0  0  0  0  0  0  0  0  0
   -3.1350    3.9830    2.5030 H   0  0  0  0  0  0  0  0  0  0  0  0
   -1.3570    2.3610    3.0130 H   0  0  0  0  0  0  0  0  0  0  0  0
   -1.4590   -2.4470   -0.0960 H   0  0  0  0  0  0  0  0  0  0  0  0
    7.7090    0.7410   -1.0250 H   0  0  0  0  0  0  0  0  0  0  0  0
 11 28  2  0  0  0  0
 11 27  1  0  0  0  0
 22 27  1  0  0  0  0
 22 29  2  0  0  0  0
  2 11  1  0  0  0  0
 21 22  1  0  0  0  0
  2 20  1  0  0  0  0
 20 21  2  0  0  0  0
 10 20  1  0  0  0  0
 10 30  2  0  0  0  0
  1 10  1  0  0  0  0
  1  6  1  0  0  0  0
  1  5  1  0  0  0  0
  6  7  1  0  0  0  0
  4  5  1  0  0  0  0
  7 25  1  0  0  0  0
  7 13  1  0  0  0  0
  4 13  1  0  0  0  0
 15 25  2  0  0  0  0
 25 26  1  0  0  0  0
  3 13  1  0  0  0  0
  8 26  1  0  0  0  0
  3 12  2  0  0  0  0
  3 24  1  0  0  0  0
 12 14  1  0  0  0  0
  8 17  1  0  0  0  0
 23 24  2  0  0  0  0
 14 32  1  0  0  0  0
 14 16  2  0  0  0  0
 17 31  1  0  0  0  0
 19 31  1  0  0  0  0
 17 18  2  0  0  0  0
 16 23  1  0  0  0  0
 16 33  1  0  0  0  0
  9 18  1  0  0  0  0
  9 19  2  0  0  0  0
  2 34  1  0  0  0  0
  4 35  1  0  0  0  0
  4 36  1  0  0  0  0
  5 37  1  0  0  0  0
  5 38  1  0  0  0  0
  6 39  1  0  0  0  0
  6 40  1  0  0  0  0
  7 41  1  0  0  0  0
  8 42  1  0  0  0  0
  8 43  1  0  0  0  0
  9 44  1  0  0  0  0
 12 45  1  0  0  0  0
 18 46  1  0  0  0  0
 19 47  1  0  0  0  0
 21 48  1  0  0  0  0
 23 49  1  0  0  0  0
 24 50  1  0  0  0  0
 26 51  1  0  0  0  0
 27 52  1  0  0  0  0
M  END
> <OPENEYE_ISO_SMILES>
c1cc(sc1)CNC(=O)[C@@H]2CN(CC[N@]2c3ccc(c(c3)Cl)Cl)C(=O)c4cc(=O)[nH]c(=O)[nH]4

> <OPENEYE_INCHI>
InChI=1S/C21H19Cl2N5O4S/c22-14-4-3-12(8-15(14)23)28-6-5-27(20(31)16-9-18(29)26-21(32)25-16)11-17(28)19(30)24-10-13-2-1-7-33-13/h1-4,7-9,17H,5-6,10-11H2,(H,24,30)(H2,25,26,29,32)/t17-/m0/s1

> <OPENEYE_INCHIKEY>
PBLOKSLGZKWIQI-KRWDZBQOSA-N

> <FORMULA>
C21H19Cl2N5O4S

$$$$
