QVX
  -OEChem-02242320033D

 48 51  0     1  0  0  0  0  0999 V2000
   -3.5960   -1.2680   -0.3120 C   0  0  0  0  0  0  0  0  0  0  0  0
   -1.6380   -2.6510   -0.2440 C   0  0  0  0  0  0  0  0  0  0  0  0
   -3.0040   -2.5180   -0.1520 C   0  0  0  0  0  0  0  0  0  0  0  0
   -0.8440   -1.5290   -0.5010 C   0  0  0  0  0  0  0  0  0  0  0  0
    0.6210   -1.6680   -0.6030 C   0  0  0  0  0  0  0  0  0  0  0  0
    2.8410   -0.7250   -0.9510 C   0  0  2  0  0  0  0  0  0  0  0  0
    3.4820   -0.5340    0.4070 C   0  0  0  0  0  0  0  0  0  0  0  0
    3.1150   -1.0260    1.6490 C   0  0  0  0  0  0  0  0  0  0  0  0
   -5.5390    0.0460    0.2640 C   0  0  0  0  0  0  0  0  0  0  0  0
    2.5500    1.6210   -1.8000 C   0  0  0  0  0  0  0  0  0  0  0  0
    3.4270    0.3960   -1.8360 C   0  0  1  0  0  0  0  0  0  0  0  0
    4.7860    0.6740   -1.1600 C   0  0  0  0  0  0  0  0  0  0  0  0
    4.5990    0.2690    0.2870 C   0  0  0  0  0  0  0  0  0  0  0  0
    5.3510    0.5810    1.4130 C   0  0  0  0  0  0  0  0  0  0  0  0
    4.9800    0.0860    2.6550 C   0  0  0  0  0  0  0  0  0  0  0  0
    3.8620   -0.7160    2.7700 C   0  0  0  0  0  0  0  0  0  0  0  0
   -6.8130    0.4360   -0.1270 C   0  0  0  0  0  0  0  0  0  0  0  0
   -6.6980    2.3360    1.1710 C   0  0  0  0  0  0  0  0  0  0  0  0
   -5.4280    2.0120    1.6110 C   0  0  0  0  0  0  0  0  0  0  0  0
   -4.8300    0.8490    1.1550 C   0  0  0  0  0  0  0  0  0  0  0  0
   -2.8080   -0.1490   -0.5670 C   0  0  0  0  0  0  0  0  0  0  0  0
   -1.4410   -0.2750   -0.6620 C   0  0  0  0  0  0  0  0  0  0  0  0
    1.3850   -0.5860   -0.8500 N   0  0  0  0  0  0  0  0  0  0  0  0
   -4.9780   -1.1380   -0.2240 N   0  0  0  0  0  0  0  0  0  0  0  0
   -7.3450    1.5520    0.3310 N   0  0  0  0  0  0  0  0  0  0  0  0
    2.6740    2.4260   -0.9080 O   0  0  0  0  0  0  0  0  0  0  0  0
    6.4510    1.3700    1.2980 O   0  0  0  0  0  0  0  0  0  0  0  0
    1.1390   -2.7600   -0.4630 O   0  0  0  0  0  0  0  0  0  0  0  0
    1.6320    1.8170   -2.7590 O   0  0  0  0  0  0  0  0  0  0  0  0
   -1.1800   -3.6210   -0.1200 H   0  0  0  0  0  0  0  0  0  0  0  0
   -3.6190   -3.3840    0.0460 H   0  0  0  0  0  0  0  0  0  0  0  0
    3.0990   -1.7020   -1.3580 H   0  0  0  0  0  0  0  0  0  0  0  0
    2.2420   -1.6530    1.7420 H   0  0  0  0  0  0  0  0  0  0  0  0
    3.5640    0.0490   -2.8600 H   0  0  0  0  0  0  0  0  0  0  0  0
    5.5690    0.0730   -1.6220 H   0  0  0  0  0  0  0  0  0  0  0  0
    5.0340    1.7330   -1.2290 H   0  0  0  0  0  0  0  0  0  0  0  0
    5.5640    0.3290    3.5300 H   0  0  0  0  0  0  0  0  0  0  0  0
    3.5710   -1.1010    3.7360 H   0  0  0  0  0  0  0  0  0  0  0  0
   -7.3730   -0.1800   -0.8150 H   0  0  0  0  0  0  0  0  0  0  0  0
   -7.1690    3.2420    1.5240 H   0  0  0  0  0  0  0  0  0  0  0  0
   -4.9060    2.6610    2.2990 H   0  0  0  0  0  0  0  0  0  0  0  0
   -3.8390    0.5710    1.4830 H   0  0  0  0  0  0  0  0  0  0  0  0
   -3.2700    0.8200   -0.6910 H   0  0  0  0  0  0  0  0  0  0  0  0
   -0.8300    0.5930   -0.8600 H   0  0  0  0  0  0  0  0  0  0  0  0
    0.9720    0.2840   -0.9620 H   0  0  0  0  0  0  0  0  0  0  0  0
   -5.5530   -1.8680   -0.5010 H   0  0  0  0  0  0  0  0  0  0  0  0
    6.2690    2.3150    1.4010 H   0  0  0  0  0  0  0  0  0  0  0  0
    1.0930    2.6180   -2.6940 H   0  0  0  0  0  0  0  0  0  0  0  0
 10 26  2  0  0  0  0
 11 12  1  0  0  0  0
 12 13  1  0  0  0  0
 13 14  2  0  0  0  0
 14 27  1  0  0  0  0
 14 15  1  0  0  0  0
 15 16  2  0  0  0  0
  8 16  1  0  0  0  0
  7  8  2  0  0  0  0
  6  7  1  0  0  0  0
  6 23  1  0  0  0  0
  5 23  1  0  0  0  0
  2  4  2  0  0  0  0
  2  3  1  0  0  0  0
  1  3  2  0  0  0  0
  9 24  1  0  0  0  0
  9 17  2  0  0  0  0
 17 25  1  0  0  0  0
 18 25  2  0  0  0  0
 18 19  1  0  0  0  0
 19 20  2  0  0  0  0
  1 24  1  0  0  0  0
  1 21  1  0  0  0  0
 21 22  2  0  0  0  0
  4  5  1  0  0  0  0
  5 28  2  0  0  0  0
 10 11  1  0  0  0  0
 10 29  1  0  0  0  0
  6 11  1  0  0  0  0
  7 13  1  0  0  0  0
  4 22  1  0  0  0  0
  9 20  1  0  0  0  0
  2 30  1  0  0  0  0
  3 31  1  0  0  0  0
  6 32  1  0  0  0  0
  8 33  1  0  0  0  0
 11 34  1  0  0  0  0
 12 35  1  0  0  0  0
 12 36  1  0  0  0  0
 15 37  1  0  0  0  0
 16 38  1  0  0  0  0
 17 39  1  0  0  0  0
 18 40  1  0  0  0  0
 19 41  1  0  0  0  0
 20 42  1  0  0  0  0
 21 43  1  0  0  0  0
 22 44  1  0  0  0  0
 23 45  1  0  0  0  0
 24 46  1  0  0  0  0
 27 47  1  0  0  0  0
 29 48  1  0  0  0  0
M  END
> <OPENEYE_ISO_SMILES>
c1cc2c(c(c1)O)C[C@@H]([C@@H]2NC(=O)c3ccc(cc3)Nc4cccnc4)C(=O)O

> <OPENEYE_INCHI>
InChI=1S/C22H19N3O4/c26-19-5-1-4-16-17(19)11-18(22(28)29)20(16)25-21(27)13-6-8-14(9-7-13)24-15-3-2-10-23-12-15/h1-10,12,18,20,24,26H,11H2,(H,25,27)(H,28,29)/t18-,20+/m0/s1

> <OPENEYE_INCHIKEY>
PYDRNAYFUJBXAX-AZUAARDMSA-N

> <FORMULA>
C22H19N3O4

$$$$
