S4F
  -OEChem-02242320043D

 36 37  0     1  0  0  0  0  0999 V2000
    3.2400    2.2030   -0.6080 C   0  0  0  0  0  0  0  0  0  0  0  0
   -5.3600    0.3340    0.7760 C   0  0  0  0  0  0  0  0  0  0  0  0
   -4.1880   -0.4400    0.2280 C   0  0  0  0  0  0  0  0  0  0  0  0
   -2.9280    0.4250    0.2970 C   0  0  0  0  0  0  0  0  0  0  0  0
   -0.4570    0.4550   -0.0770 C   0  0  0  0  0  0  0  0  0  0  0  0
   -1.7390   -0.3610   -0.2600 C   0  0  2  0  0  0  0  0  0  0  0  0
    4.0400    0.4450    0.6480 C   0  0  0  0  0  0  0  0  0  0  0  0
    2.8580   -0.2510    0.4100 C   0  0  0  0  0  0  0  0  0  0  0  0
    1.8770    0.3610   -0.3650 C   0  0  0  0  0  0  0  0  0  0  0  0
    0.5160   -0.5200   -2.0710 C   0  0  0  0  0  0  0  0  0  0  0  0
   -0.7370   -1.3650   -2.3130 C   0  0  0  0  0  0  0  0  0  0  0  0
   -1.9580   -0.6320   -1.7510 C   0  0  0  0  0  0  0  0  0  0  0  0
    5.0480   -0.1220    1.4140 N   0  0  0  0  0  0  0  0  0  0  0  0
    0.6810   -0.2900   -0.6300 N   0  0  2  0  0  0  0  0  0  0  0  0
    2.1070    1.5770   -0.8560 N   0  0  0  0  0  0  0  0  0  0  0  0
    4.1910    1.6600    0.1240 N   0  0  0  0  0  0  0  0  0  0  0  0
   -5.2020    1.4610    1.1800 O   0  0  0  0  0  0  0  0  0  0  0  0
   -6.5770   -0.2300    0.8150 O   0  0  0  0  0  0  0  0  0  0  0  0
    2.6130   -1.8410    1.0630 Cl  0  0  0  0  0  0  0  0  0  0  0  0
    3.3950    3.1890   -1.0220 H   0  0  0  0  0  0  0  0  0  0  0  0
   -4.0420   -1.3440    0.8190 H   0  0  0  0  0  0  0  0  0  0  0  0
   -4.3860   -0.7120   -0.8090 H   0  0  0  0  0  0  0  0  0  0  0  0
   -3.0750    1.3290   -0.2950 H   0  0  0  0  0  0  0  0  0  0  0  0
   -2.7310    0.6970    1.3330 H   0  0  0  0  0  0  0  0  0  0  0  0
   -0.5560    1.4070   -0.5980 H   0  0  0  0  0  0  0  0  0  0  0  0
   -0.2910    0.6370    0.9850 H   0  0  0  0  0  0  0  0  0  0  0  0
   -1.6470   -1.3080    0.2730 H   0  0  0  0  0  0  0  0  0  0  0  0
    1.3890   -1.0460   -2.4570 H   0  0  0  0  0  0  0  0  0  0  0  0
    0.4130    0.4370   -2.5820 H   0  0  0  0  0  0  0  0  0  0  0  0
   -0.8680   -1.5230   -3.3840 H   0  0  0  0  0  0  0  0  0  0  0  0
   -0.6290   -2.3280   -1.8130 H   0  0  0  0  0  0  0  0  0  0  0  0
   -2.8460   -1.2490   -1.8830 H   0  0  0  0  0  0  0  0  0  0  0  0
   -2.0890    0.3140   -2.2770 H   0  0  0  0  0  0  0  0  0  0  0  0
    4.9330   -1.0090    1.7880 H   0  0  0  0  0  0  0  0  0  0  0  0
    5.8690    0.3700    1.5740 H   0  0  0  0  0  0  0  0  0  0  0  0
   -7.2980    0.3060    1.1750 H   0  0  0  0  0  0  0  0  0  0  0  0
  7 13  1  0  0  0  0
  7 16  2  0  0  0  0
  1 16  1  0  0  0  0
  7  8  1  0  0  0  0
  1 15  2  0  0  0  0
  8 19  1  0  0  0  0
  8  9  2  0  0  0  0
  9 15  1  0  0  0  0
  9 14  1  0  0  0  0
 10 14  1  0  0  0  0
 10 11  1  0  0  0  0
  5 14  1  0  0  0  0
  5  6  1  0  0  0  0
 11 12  1  0  0  0  0
  6 12  1  0  0  0  0
  4  6  1  0  0  0  0
  3  4  1  0  0  0  0
  2  3  1  0  0  0  0
  2 17  2  0  0  0  0
  2 18  1  0  0  0  0
  1 20  1  0  0  0  0
  3 21  1  0  0  0  0
  3 22  1  0  0  0  0
  4 23  1  0  0  0  0
  4 24  1  0  0  0  0
  5 25  1  0  0  0  0
  5 26  1  0  0  0  0
  6 27  1  0  0  0  0
 10 28  1  0  0  0  0
 10 29  1  0  0  0  0
 11 30  1  0  0  0  0
 11 31  1  0  0  0  0
 12 32  1  0  0  0  0
 12 33  1  0  0  0  0
 13 34  1  0  0  0  0
 13 35  1  0  0  0  0
 18 36  1  0  0  0  0
M  END
> <OPENEYE_ISO_SMILES>
c1nc(c(c(n1)[N@@]2CCC[C@@H](C2)CCC(=O)O)Cl)N

> <OPENEYE_INCHI>
InChI=1S/C12H17ClN4O2/c13-10-11(14)15-7-16-12(10)17-5-1-2-8(6-17)3-4-9(18)19/h7-8H,1-6H2,(H,18,19)(H2,14,15,16)/t8-/m1/s1

> <OPENEYE_INCHIKEY>
JURSYTNKCJMCTM-MRVPVSSYSA-N

> <FORMULA>
C12H17ClN4O2

$$$$
