@<TRIPOS>MOLECULE
/home/pku/3cl/gett_pdb/8E6D/8E6D_mol2/ligand/8E6D_UTL.pdb
 34 35 0 0 0
SMALL
GASTEIGER

@<TRIPOS>ATOM
      1  C13      -22.5030   24.8260    6.9010 C.3   401  UTL401      0.0326
      2  C18      -23.8710   20.3510    2.0800 C.3   401  UTL401      0.0149
      3  C17      -22.3330   18.8780    3.3850 C.3   401  UTL401      0.0149
      4  C16      -22.4340   20.1250    2.5200 C.3   401  UTL401      0.0837
      5  C15      -21.9770   21.3230    3.3050 C.3   401  UTL401      0.2202
      6  C19      -22.1250   18.4140    0.2160 C.ar  401  UTL401      0.0254
      7  C21      -22.2350   16.0250   -0.0820 C.ar  401  UTL401      0.0301
      8  C22      -23.2290   16.2200   -0.9990 C.ar  401  UTL401      0.1402
      9  C24      -23.1350   18.5690   -0.7260 C.ar  401  UTL401      0.0085
     10  C1       -21.4660   23.1730    1.9140 C.2   401  UTL401      0.4215
     11  C2       -21.1280   25.5710    1.8320 C.3   401  UTL401      0.1761
     12  C3       -21.1980   26.5510    0.6620 C.3   401  UTL401      0.0312
     13  C4       -20.7400   25.9990   -0.6870 C.3   401  UTL401      0.0022
     14  C5       -19.2860   25.5590   -0.6300 C.3   401  UTL401      0.0001
     15  C6       -20.9420   27.0290   -1.7890 C.3   401  UTL401      0.0001
     16  C7       -21.5630   26.2490    3.1330 C.2   401  UTL401      0.2614
     17  C8       -20.8970   26.9800    5.3930 C.3   401  UTL401      0.1287
     18  C9       -20.2760   26.0870    6.4670 C.3   401  UTL401      0.0335
     19  C10      -21.0140   24.7570    6.6010 C.3   401  UTL401      0.0818
     20  C14      -20.5070   28.4370    5.5700 C.3   401  UTL401      0.2036
     21  C11      -20.5120   23.8510    7.7100 C.2   401  UTL401      0.2410
     22  C12      -22.7990   23.4570    7.4900 C.3   401  UTL401      0.1156
     23  C20      -21.6730   17.1370    0.5320 C.ar  401  UTL401      0.0085
     24  C23      -23.6960   17.4570   -1.3400 C.ar  401  UTL401      0.0301
     25  F1       -23.7780   15.1300   -1.6020 F     401  UTL401     -0.2042
     26  N1       -21.9230   24.3860    1.5640 N.am  401  UTL401     -0.1611
     27  N2       -20.6160   26.4630    4.0520 N.am  401  UTL401     -0.2030
     28  N3       -21.5390   23.1270    8.1490 N.am  401  UTL401     -0.2054
     29  O1       -20.3380   22.7780    1.7300 O.2   401  UTL401     -0.2246
     30  O2       -19.3440   23.7870    8.1290 O.2   401  UTL401     -0.2734
     31  O3       -21.4280   29.2530    4.8710 O.3   401  UTL401     -0.2185
     32  O4       -22.7400   26.5590    3.3040 O.2   401  UTL401     -0.2715
     33  O5       -22.4100   22.5140    2.6000 O.3   401  UTL401     -0.4326
     34  S1       -21.4130   19.8280    0.9960 S.3   401  UTL401     -0.1117
@<TRIPOS>BOND
     1    15    13    1
     2    25     8    1
     3    24     8   ar
     4    24     9   ar
     5     8     7   ar
     6     9     6   ar
     7    13    14    1
     8    13    12    1
     9     7    23   ar
    10     6    23   ar
    11     6    34    1
    12    12    11    1
    13    34     4    1
    14    26    11    1
    15    26    10   am
    16    29    10    2
    17    11    16    1
    18    10    33    1
    19     2     4    1
    20     4     5    1
    21     4     3    1
    22    33     5    1
    23    16    32    2
    24    16    27   am
    25    27    17    1
    26    31    20    1
    27    17    20    1
    28    17    18    1
    29    18    19    1
    30    19     1    1
    31    19    21    1
    32     1    22    1
    33    22    28    1
    34    21    30    2
    35    21    28   am
