@<TRIPOS>MOLECULE
/home/pku/3cl/gett_pdb/7N7U/7N7U_mol2/ligand/7N7U_0MI.pdb
 19 20 0 0 0
SMALL
GASTEIGER

@<TRIPOS>ATOM
      1  N1         8.4330  -77.0630   14.4600 N.2   401  0MI401     -0.0948
      2  C7         7.9410  -76.9600   15.8680 C.3   401  0MI401      0.1964
      3  C8         6.6910  -78.3130   20.6040 C.ar  401  0MI401      0.3545
      4  N2         7.9700  -76.3020   13.5160 N.2   401  0MI401     -0.1663
      5  C9         4.5260  -77.1280   20.5460 C.ar  401  0MI401      0.2804
      6  O1         8.7790  -76.6380   18.1170 O.3   401  0MI401     -0.3330
      7  C1         5.0030  -76.3310   19.4370 C.ar  401  0MI401      0.0534
      8  C5         8.9390  -78.8770   17.2730 C.3   401  0MI401      0.1855
      9  C6         8.9760  -77.3890   16.8930 C.3   401  0MI401      0.1748
     10  N3         7.4270  -75.5280   12.8150 N.2   401  0MI401      0.0678
     11  C4         9.1190  -78.8740   18.7870 C.3   401  0MI401      0.0895
     12  C3         8.5670  -77.5220   19.2140 C.3   401  0MI401      0.2107
     13  O3         3.4170  -76.9780   21.0830 O.2   401  0MI401     -0.2654
     14  C2         6.2650  -76.5640   19.0070 C.ar  401  0MI401      0.0824
     15  N4         5.4030  -78.0760   21.0360 N.ar  401  0MI401     -0.1533
     16  N          7.1110  -77.4970   19.5760 N.ar  401  0MI401     -0.2559
     17  C          4.1030  -75.2940   18.8260 C.3   401  0MI401      0.0377
     18  O         10.0380  -79.5700   16.6800 O.3   401  0MI401     -0.2203
     19  O2         7.4000  -79.1720   21.1170 O.2   401  0MI401     -0.2443
@<TRIPOS>BOND
     1    10     4    2
     2     4     1    2
     3     1     2    1
     4     2     9    1
     5    18     8    1
     6     9     8    1
     7     9     6    1
     8     8    11    1
     9     6    12    1
    10    11    12    1
    11    17     7    1
    12    14     7   ar
    13    14    16   ar
    14    12    16    1
    15     7     5   ar
    16    16     3   ar
    17     5    15   ar
    18     5    13    2
    19     3    15   ar
    20     3    19    2
