RKI
  -OEChem-02242320043D

 36 38  0     0  0  0  0  0  0999 V2000
    4.8560   -0.8420   -0.5470 C   0  0  0  0  0  0  0  0  0  0  0  0
    3.2510   -2.5090   -0.5850 C   0  0  0  0  0  0  0  0  0  0  0  0
    2.5390   -0.3900   -0.0320 C   0  0  0  0  0  0  0  0  0  0  0  0
    1.4520    0.5360    0.3630 C   0  0  0  0  0  0  0  0  0  0  0  0
   -0.8790    0.9900    0.9090 C   0  0  0  0  0  0  0  0  0  0  0  0
    6.1610    1.0890   -0.3990 C   0  0  0  0  0  0  0  0  0  0  0  0
    6.1520   -0.2070   -0.6610 C   0  0  0  0  0  0  0  0  0  0  0  0
   -6.0510    0.4210   -1.2350 C   0  0  0  0  0  0  0  0  0  0  0  0
   -5.0800   -0.7300   -1.1990 C   0  0  0  0  0  0  0  0  0  0  0  0
   -4.1850   -0.5950    0.0060 C   0  0  0  0  0  0  0  0  0  0  0  0
   -4.5520   -1.1700    1.2080 C   0  0  0  0  0  0  0  0  0  0  0  0
   -3.7320   -1.0460    2.3130 C   0  0  0  0  0  0  0  0  0  0  0  0
   -2.5430   -0.3470    2.2170 C   0  0  0  0  0  0  0  0  0  0  0  0
   -2.1750    0.2280    1.0150 C   0  0  0  0  0  0  0  0  0  0  0  0
    3.8570    0.0740   -0.1780 C   0  0  0  0  0  0  0  0  0  0  0  0
   -2.9930    0.0990   -0.0920 C   0  0  0  0  0  0  0  0  0  0  0  0
    0.1960    0.0740    0.5190 N   0  0  0  0  0  0  0  0  0  0  0  0
    2.2890   -1.6800   -0.2350 N   0  0  0  0  0  0  0  0  0  0  0  0
    4.4960   -2.1240   -0.7410 N   0  0  0  0  0  0  0  0  0  0  0  0
   -6.9510    0.5090   -2.2270 O   0  0  0  0  0  0  0  0  0  0  0  0
   -6.0200    1.2650   -0.3700 O   0  0  0  0  0  0  0  0  0  0  0  0
    1.6930    1.7130    0.5460 O   0  0  0  0  0  0  0  0  0  0  0  0
    4.5600    1.6710    0.0160 S   0  0  0  0  0  0  0  0  0  0  0  0
    3.0060   -3.5480   -0.7510 H   0  0  0  0  0  0  0  0  0  0  0  0
   -0.9790    1.7740    0.1580 H   0  0  0  0  0  0  0  0  0  0  0  0
   -0.6420    1.4390    1.8740 H   0  0  0  0  0  0  0  0  0  0  0  0
    7.0440    1.7100   -0.4360 H   0  0  0  0  0  0  0  0  0  0  0  0
    7.0430   -0.7500   -0.9400 H   0  0  0  0  0  0  0  0  0  0  0  0
   -5.6300   -1.6690   -1.1390 H   0  0  0  0  0  0  0  0  0  0  0  0
   -4.4730   -0.7220   -2.1050 H   0  0  0  0  0  0  0  0  0  0  0  0
   -5.4810   -1.7160    1.2840 H   0  0  0  0  0  0  0  0  0  0  0  0
   -4.0200   -1.4940    3.2530 H   0  0  0  0  0  0  0  0  0  0  0  0
   -1.9020   -0.2490    3.0800 H   0  0  0  0  0  0  0  0  0  0  0  0
   -2.7040    0.5440   -1.0330 H   0  0  0  0  0  0  0  0  0  0  0  0
    0.0030   -0.8650    0.3730 H   0  0  0  0  0  0  0  0  0  0  0  0
   -7.5540    1.2660   -2.2070 H   0  0  0  0  0  0  0  0  0  0  0  0
  6 23  1  0  0  0  0
  6  7  2  0  0  0  0
 15 23  1  0  0  0  0
  1  7  1  0  0  0  0
  4 22  2  0  0  0  0
  1 15  2  0  0  0  0
  3 15  1  0  0  0  0
  1 19  1  0  0  0  0
  3  4  1  0  0  0  0
  4 17  1  0  0  0  0
  3 18  2  0  0  0  0
  5 17  1  0  0  0  0
  5 14  1  0  0  0  0
  2 19  2  0  0  0  0
  2 18  1  0  0  0  0
 13 14  2  0  0  0  0
 14 16  1  0  0  0  0
 12 13  1  0  0  0  0
 10 16  2  0  0  0  0
 11 12  2  0  0  0  0
 10 11  1  0  0  0  0
  9 10  1  0  0  0  0
  8  9  1  0  0  0  0
  8 21  2  0  0  0  0
  8 20  1  0  0  0  0
  2 24  1  0  0  0  0
  5 25  1  0  0  0  0
  5 26  1  0  0  0  0
  6 27  1  0  0  0  0
  7 28  1  0  0  0  0
  9 29  1  0  0  0  0
  9 30  1  0  0  0  0
 11 31  1  0  0  0  0
 12 32  1  0  0  0  0
 13 33  1  0  0  0  0
 16 34  1  0  0  0  0
 17 35  1  0  0  0  0
 20 36  1  0  0  0  0
M  END
> <OPENEYE_ISO_SMILES>
c1cc(cc(c1)CNC(=O)c2c3c(ccs3)ncn2)CC(=O)O

> <OPENEYE_INCHI>
InChI=1S/C16H13N3O3S/c20-13(21)7-10-2-1-3-11(6-10)8-17-16(22)14-15-12(4-5-23-15)18-9-19-14/h1-6,9H,7-8H2,(H,17,22)(H,20,21)

> <OPENEYE_INCHIKEY>
VCJDDYFVULHGFW-UHFFFAOYSA-N

> <FORMULA>
C16H13N3O3S

$$$$
