RPU
  -OEChem-02242320043D

 44 46  0     1  0  0  0  0  0999 V2000
    2.2430    2.8870   -0.0920 C   0  0  0  0  0  0  0  0  0  0  0  0
    1.0460    2.1680   -0.6590 C   0  0  0  0  0  0  0  0  0  0  0  0
    1.9830   -0.8310   -1.2660 C   0  0  0  0  0  0  0  0  0  0  0  0
    3.0280   -1.7090   -1.4880 C   0  0  0  0  0  0  0  0  0  0  0  0
    6.0180   -2.0230    0.4670 C   0  0  0  0  0  0  0  0  0  0  0  0
   -4.0480    0.4590    0.7130 C   0  0  0  0  0  0  0  0  0  0  0  0
   -3.1570    0.0860   -1.5910 C   0  0  0  0  0  0  0  0  0  0  0  0
   -2.8840   -0.1120   -0.0990 C   0  0  1  0  0  0  0  0  0  0  0  0
   -1.6110    0.6010    0.2780 C   0  0  0  0  0  0  0  0  0  0  0  0
    0.8050    0.8790    0.1300 C   0  0  2  0  0  0  0  0  0  0  0  0
    1.9460   -0.0760   -0.1080 C   0  0  0  0  0  0  0  0  0  0  0  0
    2.9530   -0.1960    0.8310 C   0  0  0  0  0  0  0  0  0  0  0  0
    4.0020   -1.0740    0.6150 C   0  0  0  0  0  0  0  0  0  0  0  0
    4.0400   -1.8350   -0.5510 C   0  0  0  0  0  0  0  0  0  0  0  0
   -5.2970   -0.3350    0.4270 C   0  0  0  0  0  0  0  0  0  0  0  0
   -5.7070   -1.4260    1.0990 C   0  0  0  0  0  0  0  0  0  0  0  0
   -6.9170   -1.8460    0.5000 C   0  0  0  0  0  0  0  0  0  0  0  0
   -7.1730   -0.9870   -0.5030 C   0  0  0  0  0  0  0  0  0  0  0  0
   -0.4480    0.2630   -0.3130 N   0  0  0  0  0  0  0  0  0  0  0  0
    5.1610   -2.6130   -0.5290 O   0  0  0  0  0  0  0  0  0  0  0  0
    5.1000   -1.3750    1.3680 O   0  0  0  0  0  0  0  0  0  0  0  0
    2.7200    3.9830   -0.7030 O   0  0  0  0  0  0  0  0  0  0  0  0
    2.7700    2.4810    0.9160 O   0  0  0  0  0  0  0  0  0  0  0  0
   -1.6330    1.4800    1.1140 O   0  0  0  0  0  0  0  0  0  0  0  0
   -6.1920   -0.0710   -0.5390 O   0  0  0  0  0  0  0  0  0  0  0  0
    0.1680    2.8090   -0.5840 H   0  0  0  0  0  0  0  0  0  0  0  0
    1.2310    1.9250   -1.7050 H   0  0  0  0  0  0  0  0  0  0  0  0
    1.1970   -0.7320   -2.0000 H   0  0  0  0  0  0  0  0  0  0  0  0
    3.0540   -2.2980   -2.3930 H   0  0  0  0  0  0  0  0  0  0  0  0
    6.5860   -2.7940    0.9880 H   0  0  0  0  0  0  0  0  0  0  0  0
    6.6900   -1.2960    0.0130 H   0  0  0  0  0  0  0  0  0  0  0  0
   -3.8150    0.3980    1.7760 H   0  0  0  0  0  0  0  0  0  0  0  0
   -4.2080    1.5000    0.4350 H   0  0  0  0  0  0  0  0  0  0  0  0
   -3.2600    1.1510   -1.8030 H   0  0  0  0  0  0  0  0  0  0  0  0
   -2.3270   -0.3200   -2.1700 H   0  0  0  0  0  0  0  0  0  0  0  0
   -4.0770   -0.4300   -1.8640 H   0  0  0  0  0  0  0  0  0  0  0  0
   -2.7800   -1.1760    0.1130 H   0  0  0  0  0  0  0  0  0  0  0  0
    0.7410    1.1100    1.1930 H   0  0  0  0  0  0  0  0  0  0  0  0
    2.9220    0.3950    1.7350 H   0  0  0  0  0  0  0  0  0  0  0  0
   -5.2080   -1.8910    1.9360 H   0  0  0  0  0  0  0  0  0  0  0  0
   -7.5190   -2.6940    0.7910 H   0  0  0  0  0  0  0  0  0  0  0  0
   -8.0260   -1.0250   -1.1650 H   0  0  0  0  0  0  0  0  0  0  0  0
   -0.4410   -0.3880   -1.0320 H   0  0  0  0  0  0  0  0  0  0  0  0
    3.4860    4.4120   -0.3000 H   0  0  0  0  0  0  0  0  0  0  0  0
  7  8  1  0  0  0  0
  9 24  2  0  0  0  0
  6  8  1  0  0  0  0
  6 15  1  0  0  0  0
  8  9  1  0  0  0  0
  9 19  1  0  0  0  0
 15 16  2  0  0  0  0
 15 25  1  0  0  0  0
 10 19  1  0  0  0  0
 16 17  1  0  0  0  0
 10 11  1  0  0  0  0
  2 10  1  0  0  0  0
 18 25  1  0  0  0  0
  3 11  2  0  0  0  0
  3  4  1  0  0  0  0
 11 12  1  0  0  0  0
  1  2  1  0  0  0  0
 17 18  2  0  0  0  0
  4 14  2  0  0  0  0
 12 13  2  0  0  0  0
 13 14  1  0  0  0  0
 14 20  1  0  0  0  0
 13 21  1  0  0  0  0
  1 23  2  0  0  0  0
  1 22  1  0  0  0  0
  5 20  1  0  0  0  0
  5 21  1  0  0  0  0
  2 26  1  0  0  0  0
  2 27  1  0  0  0  0
  3 28  1  0  0  0  0
  4 29  1  0  0  0  0
  5 30  1  0  0  0  0
  5 31  1  0  0  0  0
  6 32  1  0  0  0  0
  6 33  1  0  0  0  0
  7 34  1  0  0  0  0
  7 35  1  0  0  0  0
  7 36  1  0  0  0  0
  8 37  1  0  0  0  0
 10 38  1  0  0  0  0
 12 39  1  0  0  0  0
 16 40  1  0  0  0  0
 17 41  1  0  0  0  0
 18 42  1  0  0  0  0
 19 43  1  0  0  0  0
 22 44  1  0  0  0  0
M  END
> <OPENEYE_ISO_SMILES>
C[C@H](Cc1ccco1)C(=O)N[C@H](CC(=O)O)c2ccc3c(c2)OCO3

> <OPENEYE_INCHI>
InChI=1S/C18H19NO6/c1-11(7-13-3-2-6-23-13)18(22)19-14(9-17(20)21)12-4-5-15-16(8-12)25-10-24-15/h2-6,8,11,14H,7,9-10H2,1H3,(H,19,22)(H,20,21)/t11-,14-/m1/s1

> <OPENEYE_INCHIKEY>
UYBDWJKXHXPRQV-BXUZGUMPSA-N

> <FORMULA>
C18H19NO6

$$$$
