@<TRIPOS>MOLECULE
/home/pku/3cl/gett_pdb/7TWV/7TWV_mol2/ligand/7TWV_AR6.pdb
 57 60 0 0 0
SMALL
GASTEIGER

@<TRIPOS>ATOM
      1  N1        14.9640    1.6690    6.0450 N.2   201  AR6201     -0.2420
      2  C2        14.6990    0.4890    5.4810 C.2   201  AR6201      0.1049
      3  N3        14.5620    0.2210    4.1840 N.pl3 201  AR6201     -0.1840
      4  C4        14.7450    1.3220    3.4290 C.ar  201  AR6201      0.1528
      5  C5        15.0490    2.5950    3.8880 C.ar  201  AR6201      0.1287
      6  C6        15.1610    2.7400    5.2710 C.3   201  AR6201      0.2004
      7  N6        15.4650    3.9450    5.8680 N.3   201  AR6201     -0.2985
      8  N7        15.1880    3.4500    2.8150 N.ar  201  AR6201     -0.2346
      9  C8        14.9740    2.7000    1.7450 C.ar  201  AR6201      0.0999
     10  N9        14.6860    1.4100    2.0760 N.ar  201  AR6201     -0.2877
     11  PA        18.0440    1.5350   -1.7140 P.3   201  AR6201      0.2182
     12  PB        19.6040   -0.1070   -3.6220 P.3   201  AR6201      0.2182
     13  C1'       14.4040    0.2690    1.2010 C.3   201  AR6201      0.1665
     14  O1A       17.6150    2.4860   -2.7820 O.co2 201  AR6201     -0.5170
     15  O1B       20.5120   -1.2490   -3.3010 O.3   201  AR6201     -0.4371
     16  C1D       21.5380    4.6120   -2.3380 C.3   201  AR6201      0.1854
     17  O1D       21.2570    5.7180   -3.0460 O.3   201  AR6201     -0.3649
     18  C2'       13.9240    0.5380   -0.1320 C.3   201  AR6201      0.1285
     19  O2'       12.5080    0.7500   -0.0510 O.3   201  AR6201     -0.3847
     20  O2A       18.5000    2.0940   -0.4100 O.3   201  AR6201     -0.4371
     21  O2B       18.3850   -0.3470   -4.4490 O.co2 201  AR6201     -0.5170
     22  C2D       23.0400    4.1670   -2.3830 C.3   201  AR6201      0.1339
     23  O2D       23.9190    5.3000   -2.1050 O.3   201  AR6201     -0.3841
     24  C3'       14.3430   -0.7170   -0.9260 C.3   201  AR6201      0.1135
     25  O3'       13.4170   -1.7680   -0.7990 O.3   201  AR6201     -0.3864
     26  O3A       19.2010    0.5280   -2.1910 O.3   201  AR6201     -0.2703
     27  C3D       23.2270    3.4880   -3.5790 C.3   201  AR6201      0.1141
     28  O3D       23.7430    4.3010   -4.6690 O.3   201  AR6201     -0.3864
     29  C4'       15.6510   -1.1060   -0.2000 C.3   201  AR6201      0.1133
     30  O4'       15.6690   -0.4640    1.0450 O.3   201  AR6201     -0.3456
     31  C4D       21.7920    2.9400   -3.9060 C.3   201  AR6201      0.1138
     32  O4D       20.9320    3.4380   -2.9380 O.3   201  AR6201     -0.3407
     33  C5'       16.9390   -0.7440   -0.9580 C.3   201  AR6201      0.0836
     34  O5'       16.7840    0.5620   -1.4980 O.3   201  AR6201     -0.3246
     35  C5D       21.6970    1.4430   -3.8320 C.3   201  AR6201      0.0837
     36  O5D       20.4030    1.0750   -4.3180 O.3   201  AR6201     -0.3246
     37  H2        14.5630   -0.2220    6.0630 H     201  AR6201      0.1015
     38  HN6       14.8400    4.5110    6.0350 H     201  AR6201      0.1209
     39 HN6A       16.2800    4.1290    6.0720 H     201  AR6201      0.1209
     40  H8        14.9850    3.0220    0.8740 H     201  AR6201      0.1030
     41  H1'       13.7860   -0.2920    1.6290 H     201  AR6201      0.0866
     42  H1D       21.2540    4.7040   -1.4490 H     201  AR6201      0.0935
     43  H2'       14.3490    1.2980   -0.4830 H     201  AR6201      0.0665
     44 HO2'       12.2460    1.1420   -0.7360 H     201  AR6201      0.2101
     45  H2D       23.1660    3.5430   -1.6930 H     201  AR6201      0.0671
     46 HO2D       24.2500    5.2180   -1.3270 H     201  AR6201      0.2101
     47  H3'       14.5090   -0.5090   -1.8270 H     201  AR6201      0.0647
     48 HO3'       13.2050   -2.0440   -1.5540 H     201  AR6201      0.2100
     49  H3D       23.8050    2.7630   -3.4320 H     201  AR6201      0.0648
     50 HO3D       23.6530    3.8840   -5.4030 H     201  AR6201      0.2100
     51  H4'       15.6390   -2.0330   -0.0520 H     201  AR6201      0.0647
     52  H4D       21.5260    3.2390   -4.7560 H     201  AR6201      0.0647
     53  H5'       17.0800   -1.3600   -1.6520 H     201  AR6201      0.0591
     54 H5'A       17.6680   -0.7590   -0.3670 H     201  AR6201      0.0591
     55  H5D       21.7980    1.1520   -2.9130 H     201  AR6201      0.0591
     56 H5DA       22.3840    1.0400   -4.3830 H     201  AR6201      0.0591
     57  HD1       20.8560    6.2780   -2.5500 H     201  AR6201      0.2126
@<TRIPOS>UNITY_ATOM_ATTR
14 1
charge -1
21 1
charge -1
@<TRIPOS>BOND
     1    50    28    1
     2    52    31    1
     3    28    27    1
     4    21    12    2
     5    56    35    1
     6    36    35    1
     7    36    12    1
     8    31    35    1
     9    31    27    1
    10    31    32    1
    11    35    55    1
    12    12    15    1
    13    12    26    1
    14    27    49    1
    15    27    22    1
    16    17    57    1
    17    17    16    1
    18    32    16    1
    19    14    11    2
    20    22    16    1
    21    22    23    1
    22    22    45    1
    23    16    42    1
    24    26    11    1
    25    23    46    1
    26    47    24    1
    27    11    34    1
    28    11    20    1
    29    53    33    1
    30    48    25    1
    31    34    33    1
    32    33    54    1
    33    33    29    1
    34    24    25    1
    35    24    29    1
    36    24    18    1
    37    44    19    1
    38    43    18    1
    39    29    51    1
    40    29    30    1
    41    18    19    1
    42    18    13    1
    43    40     9    1
    44    30    13    1
    45    13    41    1
    46    13    10    1
    47     9    10   ar
    48     9     8   ar
    49    10     4   ar
    50     8     5   ar
    51     4     5   ar
    52     4     3    1
    53     5     6    1
    54     3     2    1
    55     6     7    1
    56     6     1    1
    57     2     1    2
    58     2    37    1
    59     7    38    1
    60     7    39    1
