WEL
  -OEChem-02242320043D

 77 79  0     1  0  0  0  0  0999 V2000
   -4.7750   -0.3620    1.4160 C   0  0  0  0  0  0  0  0  0  0  0  0
   -2.1480    0.4840    0.5610 O   0  0  0  0  0  0  0  0  0  0  0  0
   -4.5580    0.5790    0.2290 C   0  0  0  0  0  0  0  0  0  0  0  0
    2.9060    1.3700   -1.6910 O   0  0  0  0  0  0  0  0  0  0  0  0
   -3.2780    1.3880    0.4480 C   0  0  0  0  0  0  0  0  0  0  0  0
    4.5340   -1.8780    1.7630 O   0  0  0  0  0  0  0  0  0  0  0  0
   -0.9380    1.0410    0.7580 C   0  0  0  0  0  0  0  0  0  0  0  0
    2.2670   -1.3240    0.5680 O   0  0  0  0  0  0  0  0  0  0  0  0
    1.4830    0.8640    0.9750 C   0  0  1  0  0  0  0  0  0  0  0  0
   -0.8290    2.2490    0.8320 O   0  0  0  0  0  0  0  0  0  0  0  0
    1.7370    1.2930    2.4220 C   0  0  0  0  0  0  0  0  0  0  0  0
    3.0880    2.0030    2.5140 C   0  0  0  0  0  0  0  0  0  0  0  0
    3.0390    3.3000    1.7040 C   0  0  0  0  0  0  0  0  0  0  0  0
    3.3950    2.3280    3.9770 C   0  0  0  0  0  0  0  0  0  0  0  0
    2.5270   -0.1390    0.5580 C   0  0  0  0  0  0  0  0  0  0  0  0
    4.7290   -0.6850   -0.3290 C   0  0  1  0  0  0  0  0  0  0  0  0
    5.7270    0.0310   -1.2420 C   0  0  0  0  0  0  0  0  0  0  0  0
    5.0120    0.5010   -2.5100 C   0  0  1  0  0  0  0  0  0  0  0  0
    3.9970    1.5730   -2.1790 C   0  0  0  0  0  0  0  0  0  0  0  0
    5.8340    2.6850   -3.0650 C   0  0  0  0  0  0  0  0  0  0  0  0
    6.0070    1.2020   -3.4640 C   0  0  0  0  0  0  0  0  0  0  0  0
    5.4760   -1.3160    0.8480 C   0  0  2  0  0  0  0  0  0  0  0  0
   -4.4300   -0.2410   -1.0560 C   0  0  0  0  0  0  0  0  0  0  0  0
   -7.2680    0.5420   -0.1510 C   0  0  0  0  0  0  0  0  0  0  0  0
   -9.2780   -0.3290   -0.4840 C   0  0  0  0  0  0  0  0  0  0  0  0
  -10.6120   -0.6440   -0.6930 C   0  0  0  0  0  0  0  0  0  0  0  0
  -10.9950   -1.9640   -0.8150 C   0  0  0  0  0  0  0  0  0  0  0  0
  -10.0540   -2.9790   -0.7290 C   0  0  0  0  0  0  0  0  0  0  0  0
   -8.7250   -2.6850   -0.5220 C   0  0  0  0  0  0  0  0  0  0  0  0
   -8.3210   -1.3540   -0.3930 C   0  0  0  0  0  0  0  0  0  0  0  0
   -5.9680    1.7060    0.0870 S   0  0  0  0  0  0  0  0  0  0  0  0
    0.1540    0.2580    0.8720 N   0  0  0  0  0  0  0  0  0  0  0  0
    3.7490    0.2800    0.1750 N   0  0  0  0  0  0  0  0  0  0  0  0
    4.4810    2.7840   -2.5050 N   0  0  0  0  0  0  0  0  0  0  0  0
   -8.5850    0.8600   -0.3250 N   0  0  0  0  0  0  0  0  0  0  0  0
   -7.1160   -0.7590   -0.1940 N   0  0  0  0  0  0  0  0  0  0  0  0
    6.5780   -2.6200    0.2360 S   0  0  0  0  0  0  0  0  0  0  0  0
   -4.8670    0.2220    2.3310 H   0  0  0  0  0  0  0  0  0  0  0  0
   -5.6880   -0.9380    1.2600 H   0  0  0  0  0  0  0  0  0  0  0  0
   -3.9270   -1.0410    1.5010 H   0  0  0  0  0  0  0  0  0  0  0  0
   -3.3700    1.9730    1.3630 H   0  0  0  0  0  0  0  0  0  0  0  0
   -3.1240    2.0590   -0.3980 H   0  0  0  0  0  0  0  0  0  0  0  0
    3.9120   -1.2370    2.1310 H   0  0  0  0  0  0  0  0  0  0  0  0
    1.5360    1.7360    0.3240 H   0  0  0  0  0  0  0  0  0  0  0  0
    0.9470    1.9710    2.7440 H   0  0  0  0  0  0  0  0  0  0  0  0
    1.7440    0.4130    3.0660 H   0  0  0  0  0  0  0  0  0  0  0  0
    3.8680    1.3550    2.1150 H   0  0  0  0  0  0  0  0  0  0  0  0
    2.3100    3.9790    2.1480 H   0  0  0  0  0  0  0  0  0  0  0  0
    4.0230    3.7690    1.7090 H   0  0  0  0  0  0  0  0  0  0  0  0
    2.7480    3.0760    0.6770 H   0  0  0  0  0  0  0  0  0  0  0  0
    3.4310    1.4040    4.5550 H   0  0  0  0  0  0  0  0  0  0  0  0
    4.3580    2.8350    4.0430 H   0  0  0  0  0  0  0  0  0  0  0  0
    2.6160    2.9770    4.3770 H   0  0  0  0  0  0  0  0  0  0  0  0
    4.2160   -1.4640   -0.8930 H   0  0  0  0  0  0  0  0  0  0  0  0
    6.1440    0.8920   -0.7190 H   0  0  0  0  0  0  0  0  0  0  0  0
    6.5310   -0.6550   -1.5100 H   0  0  0  0  0  0  0  0  0  0  0  0
    4.5300   -0.3390   -3.0090 H   0  0  0  0  0  0  0  0  0  0  0  0
    6.5740    2.9630   -2.3150 H   0  0  0  0  0  0  0  0  0  0  0  0
    5.9270    3.3250   -3.9430 H   0  0  0  0  0  0  0  0  0  0  0  0
    7.0270    0.8650   -3.2800 H   0  0  0  0  0  0  0  0  0  0  0  0
    5.7270    1.0430   -4.5050 H   0  0  0  0  0  0  0  0  0  0  0  0
    6.0650   -0.5520    1.3560 H   0  0  0  0  0  0  0  0  0  0  0  0
   -5.3420   -0.8170   -1.2120 H   0  0  0  0  0  0  0  0  0  0  0  0
   -4.2750    0.4300   -1.9010 H   0  0  0  0  0  0  0  0  0  0  0  0
   -3.5820   -0.9200   -0.9710 H   0  0  0  0  0  0  0  0  0  0  0  0
  -11.3490    0.1420   -0.7600 H   0  0  0  0  0  0  0  0  0  0  0  0
  -12.0340   -2.2080   -0.9770 H   0  0  0  0  0  0  0  0  0  0  0  0
  -10.3660   -4.0090   -0.8260 H   0  0  0  0  0  0  0  0  0  0  0  0
   -7.9980   -3.4800   -0.4560 H   0  0  0  0  0  0  0  0  0  0  0  0
    0.0580   -0.7080    0.8850 H   0  0  0  0  0  0  0  0  0  0  0  0
    3.9800    1.2200    0.2330 H   0  0  0  0  0  0  0  0  0  0  0  0
    3.9980    3.6170   -2.3850 H   0  0  0  0  0  0  0  0  0  0  0  0
   -8.9650    1.7530   -0.3350 H   0  0  0  0  0  0  0  0  0  0  0  0
    7.2390   -3.2620    1.3170 O   0  0  0  0  0  0  0  0  0  0  0  0
    5.9390   -3.3750   -0.7840 O   0  0  0  0  0  0  0  0  0  0  0  0
    7.6870   -1.8710   -0.4910 O   0  0  0  0  0  0  0  0  0  0  0  0
    8.3610   -2.4460   -0.8770 H   0  0  0  0  0  0  0  0  0  0  0  0
 26 27  2  0  0  0  0
 27 28  1  0  0  0  0
 25 26  1  0  0  0  0
 28 29  2  0  0  0  0
 25 35  1  0  0  0  0
 25 30  2  0  0  0  0
 24 35  1  0  0  0  0
 29 30  1  0  0  0  0
 30 36  1  0  0  0  0
 24 36  2  0  0  0  0
 24 31  1  0  0  0  0
  1  3  1  0  0  0  0
  3 31  1  0  0  0  0
  3  5  1  0  0  0  0
  3 23  1  0  0  0  0
  2  5  1  0  0  0  0
  2  7  1  0  0  0  0
 20 21  1  0  0  0  0
 20 34  1  0  0  0  0
  7 32  1  0  0  0  0
  7 10  2  0  0  0  0
  9 32  1  0  0  0  0
  8 15  2  0  0  0  0
 18 21  1  0  0  0  0
 19 34  1  0  0  0  0
  9 15  1  0  0  0  0
 15 33  1  0  0  0  0
  9 11  1  0  0  0  0
 18 19  1  0  0  0  0
 17 18  1  0  0  0  0
  4 19  2  0  0  0  0
 11 12  1  0  0  0  0
 12 13  1  0  0  0  0
 12 14  1  0  0  0  0
 16 33  1  0  0  0  0
 16 17  1  0  0  0  0
 16 22  1  0  0  0  0
  6 22  1  0  0  0  0
 22 37  1  0  0  0  0
  1 38  1  0  0  0  0
  1 39  1  0  0  0  0
  1 40  1  0  0  0  0
  5 41  1  0  0  0  0
  5 42  1  0  0  0  0
  6 43  1  0  0  0  0
  9 44  1  0  0  0  0
 11 45  1  0  0  0  0
 11 46  1  0  0  0  0
 12 47  1  0  0  0  0
 13 48  1  0  0  0  0
 13 49  1  0  0  0  0
 13 50  1  0  0  0  0
 14 51  1  0  0  0  0
 14 52  1  0  0  0  0
 14 53  1  0  0  0  0
 16 54  1  0  0  0  0
 17 55  1  0  0  0  0
 17 56  1  0  0  0  0
 18 57  1  0  0  0  0
 20 58  1  0  0  0  0
 20 59  1  0  0  0  0
 21 60  1  0  0  0  0
 21 61  1  0  0  0  0
 22 62  1  0  0  0  0
 23 63  1  0  0  0  0
 23 64  1  0  0  0  0
 23 65  1  0  0  0  0
 26 66  1  0  0  0  0
 27 67  1  0  0  0  0
 28 68  1  0  0  0  0
 29 69  1  0  0  0  0
 32 70  1  0  0  0  0
 33 71  1  0  0  0  0
 34 72  1  0  0  0  0
 35 73  1  0  0  0  0
 37 74  2  0  0  0  0
 37 75  2  0  0  0  0
 37 76  1  0  0  0  0
 76 77  1  0  0  0  0
M  END
> <OPENEYE_ISO_SMILES>
CC(C)C[C@@H](C(=O)N[C@@H](C[C@@H]1CCNC1=O)[C@@H](O)S(=O)(=O)O)NC(=O)OCC(C)(C)Sc2[nH]c3ccccc3n2

> <OPENEYE_INCHI>
InChI=1S/C25H37N5O8S2/c1-14(2)11-18(21(32)27-19(22(33)40(35,36)37)12-15-9-10-26-20(15)31)30-24(34)38-13-25(3,4)39-23-28-16-7-5-6-8-17(16)29-23/h5-8,14-15,18-19,22,33H,9-13H2,1-4H3,(H,26,31)(H,27,32)(H,28,29)(H,30,34)(H,35,36,37)/t15-,18-,19-,22-/m0/s1

> <OPENEYE_INCHIKEY>
NRGPZDKZNYWRRP-BCSOYYNPSA-N

> <FORMULA>
C25H37N5O8S2

$$$$
