WEQ
  -OEChem-02242320043D

 77 79  0     1  0  0  0  0  0999 V2000
   -4.4770    1.4310    0.6730 C   0  0  0  0  0  0  0  0  0  0  0  0
   -4.3540    0.5310   -0.5580 C   0  0  0  0  0  0  0  0  0  0  0  0
   -3.0650    0.8680   -1.3090 C   0  0  0  0  0  0  0  0  0  0  0  0
   -0.7060    0.9040   -0.9490 C   0  0  0  0  0  0  0  0  0  0  0  0
    1.7250    0.8950   -0.7790 C   0  0  1  0  0  0  0  0  0  0  0  0
    2.0930    2.3800   -0.7850 C   0  0  0  0  0  0  0  0  0  0  0  0
    5.2640   -0.3210    1.5260 C   0  0  0  0  0  0  0  0  0  0  0  0
    6.4250    1.7050    2.4180 C   0  0  0  0  0  0  0  0  0  0  0  0
    8.2620    1.7560    0.9970 C   0  0  0  0  0  0  0  0  0  0  0  0
    7.3330    0.6510    0.4460 C   0  0  0  0  0  0  0  0  0  0  0  0
    4.1910   -2.3790    0.6030 C   0  0  2  0  0  0  0  0  0  0  0  0
   -4.3190   -0.9340   -0.1170 C   0  0  0  0  0  0  0  0  0  0  0  0
   -7.0840    0.3490   -0.5570 C   0  0  0  0  0  0  0  0  0  0  0  0
   -8.1440   -0.3190    1.2290 C   0  0  0  0  0  0  0  0  0  0  0  0
    2.7360    0.1300    0.0350 C   0  0  0  0  0  0  0  0  0  0  0  0
    4.8580   -1.0500    0.2430 C   0  0  1  0  0  0  0  0  0  0  0  0
    6.0020    0.9700    1.1660 C   0  0  1  0  0  0  0  0  0  0  0  0
   -9.1100   -0.0630    0.2410 C   0  0  0  0  0  0  0  0  0  0  0  0
  -10.4540   -0.2520    0.5210 C   0  0  0  0  0  0  0  0  0  0  0  0
  -10.8400   -0.6970    1.7690 C   0  0  0  0  0  0  0  0  0  0  0  0
   -9.8910   -0.9560    2.7470 C   0  0  0  0  0  0  0  0  0  0  0  0
   -8.5520   -0.7670    2.4880 C   0  0  0  0  0  0  0  0  0  0  0  0
    3.4470    2.5670   -1.4740 C   0  0  0  0  0  0  0  0  0  0  0  0
    3.3200    2.2040   -2.9550 C   0  0  0  0  0  0  0  0  0  0  0  0
    3.8890    4.0260   -1.3430 C   0  0  0  0  0  0  0  0  0  0  0  0
    0.3940    0.7250   -0.1910 N   0  0  0  0  0  0  0  0  0  0  0  0
    3.9170   -0.2200   -0.5130 N   0  0  0  0  0  0  0  0  0  0  0  0
    7.6940    2.1320    2.2980 N   0  0  0  0  0  0  0  0  0  0  0  0
   -8.4130    0.3620   -0.8780 N   0  0  0  0  0  0  0  0  0  0  0  0
   -6.9300   -0.0550    0.6800 N   0  0  0  0  0  0  0  0  0  0  0  0
   -1.9250    0.6520   -0.4360 O   0  0  0  0  0  0  0  0  0  0  0  0
    5.7200    1.8870    3.3890 O   0  0  0  0  0  0  0  0  0  0  0  0
    5.0960   -3.1740    1.3720 O   0  0  0  0  0  0  0  0  0  0  0  0
    2.4880   -0.1700    1.1840 O   0  0  0  0  0  0  0  0  0  0  0  0
   -0.5970    1.2940   -2.0940 O   0  0  0  0  0  0  0  0  0  0  0  0
   -5.7750    0.8000   -1.6460 S   0  0  0  0  0  0  0  0  0  0  0  0
    3.7510   -3.2650   -0.9180 S   0  0  0  0  0  0  0  0  0  0  0  0
   -4.5020    2.4750    0.3590 H   0  0  0  0  0  0  0  0  0  0  0  0
   -5.3960    1.1910    1.2090 H   0  0  0  0  0  0  0  0  0  0  0  0
   -3.6210    1.2690    1.3290 H   0  0  0  0  0  0  0  0  0  0  0  0
   -2.9770    0.2260   -2.1860 H   0  0  0  0  0  0  0  0  0  0  0  0
   -3.0890    1.9110   -1.6230 H   0  0  0  0  0  0  0  0  0  0  0  0
    1.7210    0.5170   -1.8020 H   0  0  0  0  0  0  0  0  0  0  0  0
    1.3300    2.9410   -1.3250 H   0  0  0  0  0  0  0  0  0  0  0  0
    2.1550    2.7430    0.2400 H   0  0  0  0  0  0  0  0  0  0  0  0
    4.3730   -0.0810    2.1050 H   0  0  0  0  0  0  0  0  0  0  0  0
    5.9200   -0.9610    2.1150 H   0  0  0  0  0  0  0  0  0  0  0  0
    9.2730    1.3700    1.1240 H   0  0  0  0  0  0  0  0  0  0  0  0
    8.2660    2.6150    0.3260 H   0  0  0  0  0  0  0  0  0  0  0  0
    7.2220    0.7380   -0.6350 H   0  0  0  0  0  0  0  0  0  0  0  0
    7.6980   -0.3390    0.7210 H   0  0  0  0  0  0  0  0  0  0  0  0
    3.2900   -2.1880    1.1850 H   0  0  0  0  0  0  0  0  0  0  0  0
   -5.2380   -1.1740    0.4190 H   0  0  0  0  0  0  0  0  0  0  0  0
   -4.2320   -1.5750   -0.9940 H   0  0  0  0  0  0  0  0  0  0  0  0
   -3.4640   -1.0960    0.5390 H   0  0  0  0  0  0  0  0  0  0  0  0
    5.7430   -1.2400   -0.3630 H   0  0  0  0  0  0  0  0  0  0  0  0
    5.3750    1.6080    0.5430 H   0  0  0  0  0  0  0  0  0  0  0  0
  -11.1980   -0.0510   -0.2350 H   0  0  0  0  0  0  0  0  0  0  0  0
  -11.8870   -0.8440    1.9860 H   0  0  0  0  0  0  0  0  0  0  0  0
  -10.2050   -1.3040    3.7200 H   0  0  0  0  0  0  0  0  0  0  0  0
   -7.8180   -0.9720    3.2540 H   0  0  0  0  0  0  0  0  0  0  0  0
    4.1860    1.9190   -1.0040 H   0  0  0  0  0  0  0  0  0  0  0  0
    4.2540    2.4330   -3.4670 H   0  0  0  0  0  0  0  0  0  0  0  0
    3.1050    1.1400   -3.0510 H   0  0  0  0  0  0  0  0  0  0  0  0
    2.5100    2.7800   -3.4020 H   0  0  0  0  0  0  0  0  0  0  0  0
    3.9790    4.2850   -0.2880 H   0  0  0  0  0  0  0  0  0  0  0  0
    4.8530    4.1590   -1.8340 H   0  0  0  0  0  0  0  0  0  0  0  0
    3.1490    4.6730   -1.8140 H   0  0  0  0  0  0  0  0  0  0  0  0
    0.3050    0.4820    0.7440 H   0  0  0  0  0  0  0  0  0  0  0  0
    4.1430    0.0770   -1.4080 H   0  0  0  0  0  0  0  0  0  0  0  0
    8.1740    2.6220    2.9830 H   0  0  0  0  0  0  0  0  0  0  0  0
   -8.7960    0.6200   -1.7310 H   0  0  0  0  0  0  0  0  0  0  0  0
    5.3740   -2.7610    2.2010 H   0  0  0  0  0  0  0  0  0  0  0  0
    4.8770   -3.3700   -1.7780 O   0  0  0  0  0  0  0  0  0  0  0  0
    2.9490   -4.4000   -0.6200 O   0  0  0  0  0  0  0  0  0  0  0  0
    2.8070   -2.3200   -1.6480 O   0  0  0  0  0  0  0  0  0  0  0  0
    2.4830   -2.6630   -2.4930 H   0  0  0  0  0  0  0  0  0  0  0  0
 19 20  2  0  0  0  0
 20 21  1  0  0  0  0
 18 19  1  0  0  0  0
 21 22  2  0  0  0  0
 18 29  1  0  0  0  0
 14 18  2  0  0  0  0
 13 29  1  0  0  0  0
 14 22  1  0  0  0  0
 14 30  1  0  0  0  0
 13 30  2  0  0  0  0
 13 36  1  0  0  0  0
  1  2  1  0  0  0  0
  2 36  1  0  0  0  0
  2  3  1  0  0  0  0
  2 12  1  0  0  0  0
  3 31  1  0  0  0  0
  4 31  1  0  0  0  0
  9 10  1  0  0  0  0
  9 28  1  0  0  0  0
  4 26  1  0  0  0  0
  4 35  2  0  0  0  0
  5 26  1  0  0  0  0
 10 17  1  0  0  0  0
 15 34  2  0  0  0  0
  8 28  1  0  0  0  0
  5 15  1  0  0  0  0
  5  6  1  0  0  0  0
 15 27  1  0  0  0  0
  8 17  1  0  0  0  0
  7 17  1  0  0  0  0
  8 32  2  0  0  0  0
  6 23  1  0  0  0  0
 23 24  1  0  0  0  0
 23 25  1  0  0  0  0
 16 27  1  0  0  0  0
  7 16  1  0  0  0  0
 11 16  1  0  0  0  0
 11 33  1  0  0  0  0
 11 37  1  0  0  0  0
  1 38  1  0  0  0  0
  1 39  1  0  0  0  0
  1 40  1  0  0  0  0
  3 41  1  0  0  0  0
  3 42  1  0  0  0  0
  5 43  1  0  0  0  0
  6 44  1  0  0  0  0
  6 45  1  0  0  0  0
  7 46  1  0  0  0  0
  7 47  1  0  0  0  0
  9 48  1  0  0  0  0
  9 49  1  0  0  0  0
 10 50  1  0  0  0  0
 10 51  1  0  0  0  0
 11 52  1  0  0  0  0
 12 53  1  0  0  0  0
 12 54  1  0  0  0  0
 12 55  1  0  0  0  0
 16 56  1  0  0  0  0
 17 57  1  0  0  0  0
 19 58  1  0  0  0  0
 20 59  1  0  0  0  0
 21 60  1  0  0  0  0
 22 61  1  0  0  0  0
 23 62  1  0  0  0  0
 24 63  1  0  0  0  0
 24 64  1  0  0  0  0
 24 65  1  0  0  0  0
 25 66  1  0  0  0  0
 25 67  1  0  0  0  0
 25 68  1  0  0  0  0
 26 69  1  0  0  0  0
 27 70  1  0  0  0  0
 28 71  1  0  0  0  0
 29 72  1  0  0  0  0
 33 73  1  0  0  0  0
 37 74  2  0  0  0  0
 37 75  2  0  0  0  0
 37 76  1  0  0  0  0
 76 77  1  0  0  0  0
M  END
> <OPENEYE_ISO_SMILES>
CC(C)C[C@@H](C(=O)N[C@@H](C[C@@H]1CCNC1=O)[C@H](O)S(=O)(=O)O)NC(=O)OCC(C)(C)Sc2[nH]c3ccccc3n2

> <OPENEYE_INCHI>
InChI=1S/C25H37N5O8S2/c1-14(2)11-18(21(32)27-19(22(33)40(35,36)37)12-15-9-10-26-20(15)31)30-24(34)38-13-25(3,4)39-23-28-16-7-5-6-8-17(16)29-23/h5-8,14-15,18-19,22,33H,9-13H2,1-4H3,(H,26,31)(H,27,32)(H,28,29)(H,30,34)(H,35,36,37)/t15-,18-,19-,22+/m0/s1

> <OPENEYE_INCHIKEY>
NRGPZDKZNYWRRP-SXTKRDDTSA-N

> <FORMULA>
C25H37N5O8S2

$$$$
