XTP
  -OEChem-02242320043D

 58 60  0     1  0  0  0  0  0999 V2000
    5.5610   -1.4360   -1.2080 C   0  0  0  0  0  0  0  0  0  0  0  0
    0.3890    2.8430    0.0320 C   0  0  0  0  0  0  0  0  0  0  0  0
   -0.2650    5.1930   -0.9120 C   0  0  0  0  0  0  0  0  0  0  0  0
   -2.0220    0.0820   -0.2960 C   0  0  0  0  0  0  0  0  0  0  0  0
   -3.9860   -1.2330   -0.6270 C   0  0  0  0  0  0  0  0  0  0  0  0
   -5.8590   -1.8620    0.9100 C   0  0  0  0  0  0  0  0  0  0  0  0
   -8.1220   -1.2370    0.4400 C   0  0  0  0  0  0  0  0  0  0  0  0
   -6.3690   -0.6040   -1.0620 C   0  0  0  0  0  0  0  0  0  0  0  0
    0.9240    0.5340    0.7620 C   0  0  0  0  0  0  0  0  0  0  0  0
    3.1180   -0.2280    1.5000 C   0  0  1  0  0  0  0  0  0  0  0  0
    4.4670   -0.4670    0.8210 C   0  0  0  0  0  0  0  0  0  0  0  0
    4.2590   -1.2910   -0.4520 C   0  0  2  0  0  0  0  0  0  0  0  0
    3.8620   -2.7430   -0.0970 C   0  0  0  0  0  0  0  0  0  0  0  0
    4.5900   -3.5460   -1.1980 C   0  0  0  0  0  0  0  0  0  0  0  0
    3.3360    0.5150    2.8200 C   0  0  0  0  0  0  0  0  0  0  0  0
    0.0460    1.3620   -0.1410 C   0  0  1  0  0  0  0  0  0  0  0  0
   -0.4010    3.6710   -0.9840 C   0  0  0  0  0  0  0  0  0  0  0  0
    0.3930    4.4190   -2.0560 C   0  0  0  0  0  0  0  0  0  0  0  0
   -5.4450   -1.2330   -0.2490 C   0  0  0  0  0  0  0  0  0  0  0  0
   -7.1980   -1.8670    1.2530 C   0  0  0  0  0  0  0  0  0  0  0  0
   -7.7070   -0.6040   -0.7160 C   0  0  0  0  0  0  0  0  0  0  0  0
    2.2640    0.5770    0.6230 N   0  0  0  0  0  0  0  0  0  0  0  0
    5.7200   -2.7070   -1.6140 N   0  0  0  0  0  0  0  0  0  0  0  0
   -1.3590    1.1420    0.2090 N   0  0  0  0  0  0  0  0  0  0  0  0
    0.4250   -0.1700    1.6140 O   0  0  0  0  0  0  0  0  0  0  0  0
    6.3440   -0.5350   -1.4220 O   0  0  0  0  0  0  0  0  0  0  0  0
    4.0710    1.7160    2.5750 O   0  0  0  0  0  0  0  0  0  0  0  0
   -3.3370   -0.0680   -0.0510 O   0  0  0  0  0  0  0  0  0  0  0  0
   -1.4320   -0.7380   -0.9710 O   0  0  0  0  0  0  0  0  0  0  0  0
    0.1290    3.1610    1.0410 H   0  0  0  0  0  0  0  0  0  0  0  0
    1.4570    2.9900   -0.1320 H   0  0  0  0  0  0  0  0  0  0  0  0
   -1.1470    5.7890   -1.1500 H   0  0  0  0  0  0  0  0  0  0  0  0
    0.3870    5.6050   -0.1420 H   0  0  0  0  0  0  0  0  0  0  0  0
   -3.5120   -2.1380   -0.2460 H   0  0  0  0  0  0  0  0  0  0  0  0
   -3.8910   -1.2020   -1.7120 H   0  0  0  0  0  0  0  0  0  0  0  0
   -5.1370   -2.3530    1.5450 H   0  0  0  0  0  0  0  0  0  0  0  0
   -9.1680   -1.2410    0.7080 H   0  0  0  0  0  0  0  0  0  0  0  0
   -6.0450   -0.1120   -1.9680 H   0  0  0  0  0  0  0  0  0  0  0  0
    2.6360   -1.1850    1.6980 H   0  0  0  0  0  0  0  0  0  0  0  0
    4.9190    0.4910    0.5630 H   0  0  0  0  0  0  0  0  0  0  0  0
    5.1260   -1.0080    1.5000 H   0  0  0  0  0  0  0  0  0  0  0  0
    3.5000   -0.8300   -1.0840 H   0  0  0  0  0  0  0  0  0  0  0  0
    4.2320   -3.0140    0.8920 H   0  0  0  0  0  0  0  0  0  0  0  0
    2.7830   -2.8830   -0.1600 H   0  0  0  0  0  0  0  0  0  0  0  0
    4.9480   -4.4950   -0.7980 H   0  0  0  0  0  0  0  0  0  0  0  0
    3.9230   -3.7190   -2.0420 H   0  0  0  0  0  0  0  0  0  0  0  0
    2.3710    0.7640    3.2610 H   0  0  0  0  0  0  0  0  0  0  0  0
    0.2130    1.0690   -1.1780 H   0  0  0  0  0  0  0  0  0  0  0  0
   -1.3720    3.2650   -1.2670 H   0  0  0  0  0  0  0  0  0  0  0  0
   -0.0560    4.5050   -3.0460 H   0  0  0  0  0  0  0  0  0  0  0  0
    1.4780    4.3210   -2.0390 H   0  0  0  0  0  0  0  0  0  0  0  0
   -7.5220   -2.3620    2.1570 H   0  0  0  0  0  0  0  0  0  0  0  0
   -8.4290   -0.1130   -1.3520 H   0  0  0  0  0  0  0  0  0  0  0  0
    2.6630    1.1400   -0.0590 H   0  0  0  0  0  0  0  0  0  0  0  0
    6.4870   -3.0300   -2.1120 H   0  0  0  0  0  0  0  0  0  0  0  0
   -1.8130    1.7590    0.8040 H   0  0  0  0  0  0  0  0  0  0  0  0
    3.8960   -0.1200    3.5060 H   0  0  0  0  0  0  0  0  0  0  0  0
    4.2460    2.2390    3.3690 H   0  0  0  0  0  0  0  0  0  0  0  0
  3 18  1  0  0  0  0
 17 18  1  0  0  0  0
  8 21  2  0  0  0  0
  7 21  1  0  0  0  0
  8 19  1  0  0  0  0
  5 28  1  0  0  0  0
  4 28  1  0  0  0  0
  2 17  1  0  0  0  0
  2 16  1  0  0  0  0
  4 24  1  0  0  0  0
 16 24  1  0  0  0  0
  3 17  1  0  0  0  0
  7 20  2  0  0  0  0
  9 25  2  0  0  0  0
  5 19  1  0  0  0  0
  6 19  2  0  0  0  0
  4 29  2  0  0  0  0
  6 20  1  0  0  0  0
  9 16  1  0  0  0  0
  9 22  1  0  0  0  0
 10 22  1  0  0  0  0
 13 14  1  0  0  0  0
 12 13  1  0  0  0  0
 10 15  1  0  0  0  0
 10 11  1  0  0  0  0
 14 23  1  0  0  0  0
 15 27  1  0  0  0  0
 11 12  1  0  0  0  0
  1 12  1  0  0  0  0
  1 23  1  0  0  0  0
  1 26  2  0  0  0  0
  2 30  1  0  0  0  0
  2 31  1  0  0  0  0
  3 32  1  0  0  0  0
  3 33  1  0  0  0  0
  5 34  1  0  0  0  0
  5 35  1  0  0  0  0
  6 36  1  0  0  0  0
  7 37  1  0  0  0  0
  8 38  1  0  0  0  0
 10 39  1  0  0  0  0
 11 40  1  0  0  0  0
 11 41  1  0  0  0  0
 12 42  1  0  0  0  0
 13 43  1  0  0  0  0
 13 44  1  0  0  0  0
 14 45  1  0  0  0  0
 14 46  1  0  0  0  0
 15 47  1  0  0  0  0
 16 48  1  0  0  0  0
 17 49  1  0  0  0  0
 18 50  1  0  0  0  0
 18 51  1  0  0  0  0
 20 52  1  0  0  0  0
 21 53  1  0  0  0  0
 22 54  1  0  0  0  0
 23 55  1  0  0  0  0
 24 56  1  0  0  0  0
 15 57  1  0  0  0  0
 27 58  1  0  0  0  0
M  END
> <OPENEYE_ISO_SMILES>
c1ccc(cc1)COC(=O)N[C@@H](CC2CC2)C(=O)N[C@@H](C[C@@H]3CCNC3=O)CO

> <OPENEYE_INCHI>
InChI=1S/C21H29N3O5/c25-12-17(11-16-8-9-22-19(16)26)23-20(27)18(10-14-6-7-14)24-21(28)29-13-15-4-2-1-3-5-15/h1-5,14,16-18,25H,6-13H2,(H,22,26)(H,23,27)(H,24,28)/t16-,17-,18-/m0/s1

> <OPENEYE_INCHIKEY>
PJKBYKVMAKWNAK-BZSNNMDCSA-N

> <FORMULA>
C21H29N3O5

$$$$
