QIW
  -OEChem-02242320033D

 37 39  0     0  0  0  0  0  0999 V2000
    5.0260   -0.8120   -0.3930 C   0  0  0  0  0  0  0  0  0  0  0  0
    3.5620   -0.9830   -0.0780 C   0  0  0  0  0  0  0  0  0  0  0  0
    2.7880    1.4280   -0.5390 C   0  0  0  0  0  0  0  0  0  0  0  0
    2.5780    0.0270   -0.1480 C   0  0  0  0  0  0  0  0  0  0  0  0
    1.3670   -0.5580    0.2250 C   0  0  0  0  0  0  0  0  0  0  0  0
   -2.2990    0.1840   -0.1240 C   0  0  0  0  0  0  0  0  0  0  0  0
   -1.0870   -0.4980   -0.2250 C   0  0  0  0  0  0  0  0  0  0  0  0
   -4.4440   -2.4450   -0.2160 C   0  0  0  0  0  0  0  0  0  0  0  0
   -4.1510   -1.3520   -1.2460 C   0  0  0  0  0  0  0  0  0  0  0  0
   -3.6720   -0.1110   -0.5380 C   0  0  0  0  0  0  0  0  0  0  0  0
   -4.4230    0.9370   -0.1660 C   0  0  0  0  0  0  0  0  0  0  0  0
   -2.3380    1.4460    0.5010 C   0  0  0  0  0  0  0  0  0  0  0  0
   -0.0650    1.3740    0.9010 C   0  0  0  0  0  0  0  0  0  0  0  0
    0.0540    0.1150    0.3010 C   0  0  0  0  0  0  0  0  0  0  0  0
    0.6370   -2.8490    0.9360 C   0  0  0  0  0  0  0  0  0  0  0  0
   -3.6410    1.8760    0.4520 N   0  0  0  0  0  0  0  0  0  0  0  0
   -1.2260    1.9830    0.9870 N   0  0  0  0  0  0  0  0  0  0  0  0
    2.9870   -2.0900    0.3020 N   0  0  0  0  0  0  0  0  0  0  0  0
    1.6220   -1.8550    0.5030 N   0  0  0  0  0  0  0  0  0  0  0  0
    2.6880    1.7540   -1.7060 O   0  0  0  0  0  0  0  0  0  0  0  0
    3.0920    2.3500    0.3960 O   0  0  0  0  0  0  0  0  0  0  0  0
    5.5610   -0.5240    0.5110 H   0  0  0  0  0  0  0  0  0  0  0  0
    5.4280   -1.7520   -0.7710 H   0  0  0  0  0  0  0  0  0  0  0  0
    5.1460   -0.0360   -1.1490 H   0  0  0  0  0  0  0  0  0  0  0  0
   -1.0310   -1.4690   -0.6950 H   0  0  0  0  0  0  0  0  0  0  0  0
   -3.5350   -2.6720    0.3410 H   0  0  0  0  0  0  0  0  0  0  0  0
   -5.2150   -2.0990    0.4720 H   0  0  0  0  0  0  0  0  0  0  0  0
   -4.7900   -3.3430   -0.7280 H   0  0  0  0  0  0  0  0  0  0  0  0
   -3.3800   -1.6980   -1.9340 H   0  0  0  0  0  0  0  0  0  0  0  0
   -5.0600   -1.1250   -1.8030 H   0  0  0  0  0  0  0  0  0  0  0  0
   -5.4870    1.0270   -0.3300 H   0  0  0  0  0  0  0  0  0  0  0  0
    0.8130    1.8490    1.3110 H   0  0  0  0  0  0  0  0  0  0  0  0
    0.2100   -3.3420    0.0630 H   0  0  0  0  0  0  0  0  0  0  0  0
    1.1230   -3.5900    1.5700 H   0  0  0  0  0  0  0  0  0  0  0  0
   -0.1550   -2.3540    1.4980 H   0  0  0  0  0  0  0  0  0  0  0  0
   -3.9630    2.7190    0.8090 H   0  0  0  0  0  0  0  0  0  0  0  0
    3.2220    3.2590    0.0900 H   0  0  0  0  0  0  0  0  0  0  0  0
  8  9  1  0  0  0  0
  9 10  1  0  0  0  0
 10 11  2  0  0  0  0
 11 16  1  0  0  0  0
 12 16  1  0  0  0  0
 12 17  2  0  0  0  0
 13 17  1  0  0  0  0
 13 14  2  0  0  0  0
  6  7  2  0  0  0  0
  7 14  1  0  0  0  0
  5 14  1  0  0  0  0
  4  5  2  0  0  0  0
  3 20  2  0  0  0  0
  3 21  1  0  0  0  0
  3  4  1  0  0  0  0
  2  4  1  0  0  0  0
  1  2  1  0  0  0  0
  2 18  2  0  0  0  0
 18 19  1  0  0  0  0
 15 19  1  0  0  0  0
  6 10  1  0  0  0  0
  6 12  1  0  0  0  0
  5 19  1  0  0  0  0
  1 22  1  0  0  0  0
  1 23  1  0  0  0  0
  1 24  1  0  0  0  0
  7 25  1  0  0  0  0
  8 26  1  0  0  0  0
  8 27  1  0  0  0  0
  8 28  1  0  0  0  0
  9 29  1  0  0  0  0
  9 30  1  0  0  0  0
 11 31  1  0  0  0  0
 13 32  1  0  0  0  0
 15 33  1  0  0  0  0
 15 34  1  0  0  0  0
 15 35  1  0  0  0  0
 16 36  1  0  0  0  0
 21 37  1  0  0  0  0
M  END
> <OPENEYE_ISO_SMILES>
CCc1c[nH]c2c1cc(cn2)c3c(c(nn3C)C)C(=O)O

> <OPENEYE_INCHI>
InChI=1S/C15H16N4O2/c1-4-9-6-16-14-11(9)5-10(7-17-14)13-12(15(20)21)8(2)18-19(13)3/h5-7H,4H2,1-3H3,(H,16,17)(H,20,21)

> <OPENEYE_INCHIKEY>
CJCWGFRSMPSRDX-UHFFFAOYSA-N

> <FORMULA>
C15H16N4O2

$$$$
