WS4
  -OEChem-02242320043D

 27 28  0     0  0  0  0  0  0999 V2000
   -4.0290    1.1750    0.2120 N   0  0  0  0  0  0  0  0  0  0  0  0
    1.5610    0.4220    0.1600 C   0  0  0  0  0  0  0  0  0  0  0  0
    2.4310    1.4020   -0.2990 C   0  0  0  0  0  0  0  0  0  0  0  0
    3.7810    1.1310   -0.4050 C   0  0  0  0  0  0  0  0  0  0  0  0
    2.0490   -0.8280    0.5160 C   0  0  0  0  0  0  0  0  0  0  0  0
    3.3990   -1.0970    0.4090 C   0  0  0  0  0  0  0  0  0  0  0  0
   -3.1860   -0.8400   -0.2120 C   0  0  0  0  0  0  0  0  0  0  0  0
   -0.3390   -1.4030   -0.2290 O   0  0  0  0  0  0  0  0  0  0  0  0
   -0.7120   -0.2710    0.0140 C   0  0  0  0  0  0  0  0  0  0  0  0
   -2.1520    0.0430    0.0280 C   0  0  0  0  0  0  0  0  0  0  0  0
   -2.7330    1.3040    0.2920 C   0  0  0  0  0  0  0  0  0  0  0  0
   -4.3340   -0.1540   -0.1010 N   0  0  0  0  0  0  0  0  0  0  0  0
   -5.6810   -0.7040   -0.2780 C   0  0  0  0  0  0  0  0  0  0  0  0
    0.1910    0.6960    0.2690 N   0  0  0  0  0  0  0  0  0  0  0  0
    4.2670   -0.1190   -0.0540 C   0  0  0  0  0  0  0  0  0  0  0  0
    5.5970   -0.3850   -0.1600 O   0  0  0  0  0  0  0  0  0  0  0  0
    2.0520    2.3760   -0.5720 H   0  0  0  0  0  0  0  0  0  0  0  0
    4.4570    1.8930   -0.7620 H   0  0  0  0  0  0  0  0  0  0  0  0
    1.3740   -1.5890    0.8770 H   0  0  0  0  0  0  0  0  0  0  0  0
    3.7800   -2.0690    0.6860 H   0  0  0  0  0  0  0  0  0  0  0  0
   -3.0880   -1.8900   -0.4460 H   0  0  0  0  0  0  0  0  0  0  0  0
   -2.1980    2.2140    0.5180 H   0  0  0  0  0  0  0  0  0  0  0  0
   -5.9760   -0.6140   -1.3230 H   0  0  0  0  0  0  0  0  0  0  0  0
   -5.6850   -1.7550    0.0120 H   0  0  0  0  0  0  0  0  0  0  0  0
   -6.3830   -0.1530    0.3470 H   0  0  0  0  0  0  0  0  0  0  0  0
   -0.1070    1.5820    0.5280 H   0  0  0  0  0  0  0  0  0  0  0  0
    5.8590   -0.7460   -1.0180 H   0  0  0  0  0  0  0  0  0  0  0  0
 15 16  1  0  0  0  0
  6 15  2  0  0  0  0
  4 15  1  0  0  0  0
  5  6  1  0  0  0  0
  3  4  2  0  0  0  0
  2  5  2  0  0  0  0
  2  3  1  0  0  0  0
  2 14  1  0  0  0  0
  9 14  1  0  0  0  0
  8  9  2  0  0  0  0
  9 10  1  0  0  0  0
 10 11  1  0  0  0  0
  7 10  2  0  0  0  0
  1 11  2  0  0  0  0
  7 12  1  0  0  0  0
  1 12  1  0  0  0  0
 12 13  1  0  0  0  0
  3 17  1  0  0  0  0
  4 18  1  0  0  0  0
  5 19  1  0  0  0  0
  6 20  1  0  0  0  0
  7 21  1  0  0  0  0
 11 22  1  0  0  0  0
 13 23  1  0  0  0  0
 13 24  1  0  0  0  0
 13 25  1  0  0  0  0
 14 26  1  0  0  0  0
 16 27  1  0  0  0  0
M  END
> <OPENEYE_ISO_SMILES>
Cn1cc(cn1)C(=O)Nc2ccc(cc2)O

> <OPENEYE_INCHI>
InChI=1S/C11H11N3O2/c1-14-7-8(6-12-14)11(16)13-9-2-4-10(15)5-3-9/h2-7,15H,1H3,(H,13,16)

> <OPENEYE_INCHIKEY>
BOTWCSZQXQBVCZ-UHFFFAOYSA-N

> <FORMULA>
C11H11N3O2

$$$$
