T2V
  -OEChem-02242320043D

 34 36  0     1  0  0  0  0  0999 V2000
    1.3950   -0.4150   -1.0480 N   0  0  0  0  0  0  0  0  0  0  0  0
   -1.2950    1.7960   -0.7400 C   0  0  0  0  0  0  0  0  0  0  0  0
   -0.9170    0.3180   -0.6110 C   0  0  2  0  0  0  0  0  0  0  0  0
   -1.7270   -0.3150    0.5240 C   0  0  0  0  0  0  0  0  0  0  0  0
    0.5540    0.2000   -0.3060 C   0  0  0  0  0  0  0  0  0  0  0  0
    2.6820   -0.4420   -0.6510 C   0  0  0  0  0  0  0  0  0  0  0  0
    5.0330   -0.9480   -0.6920 C   0  0  0  0  0  0  0  0  0  0  0  0
    2.8680    0.2400    0.5570 C   0  0  0  0  0  0  0  0  0  0  0  0
   -3.1560   -0.0760    0.2760 N   0  0  0  0  0  0  0  0  0  0  0  0
   -3.5330   -2.5190    0.3850 C   0  0  0  0  0  0  0  0  0  0  0  0
   -5.2180   -0.8840    0.1380 O   0  0  0  0  0  0  0  0  0  0  0  0
   -4.0300   -1.1020    0.2570 C   0  0  0  0  0  0  0  0  0  0  0  0
    5.2100   -0.2710    0.5060 C   0  0  0  0  0  0  0  0  0  0  0  0
    4.1350    0.3210    1.1300 C   0  0  0  0  0  0  0  0  0  0  0  0
   -3.6130    1.3010    0.0480 C   0  0  0  0  0  0  0  0  0  0  0  0
   -2.7820    1.9170   -1.0820 C   0  0  0  0  0  0  0  0  0  0  0  0
    3.8010   -1.0380   -1.2660 C   0  0  0  0  0  0  0  0  0  0  0  0
    1.3050    0.8670    1.0730 S   0  0  0  0  0  0  0  0  0  0  0  0
   -1.0970    2.3050    0.2040 H   0  0  0  0  0  0  0  0  0  0  0  0
   -0.7020    2.2550   -1.5310 H   0  0  0  0  0  0  0  0  0  0  0  0
   -1.1380   -0.1960   -1.5470 H   0  0  0  0  0  0  0  0  0  0  0  0
   -1.5360   -1.3880    0.5550 H   0  0  0  0  0  0  0  0  0  0  0  0
   -1.4390    0.1360    1.4740 H   0  0  0  0  0  0  0  0  0  0  0  0
    5.8820   -1.4100   -1.1740 H   0  0  0  0  0  0  0  0  0  0  0  0
   -3.2310   -2.8880   -0.5950 H   0  0  0  0  0  0  0  0  0  0  0  0
   -2.6790   -2.5440    1.0620 H   0  0  0  0  0  0  0  0  0  0  0  0
   -4.3290   -3.1490    0.7810 H   0  0  0  0  0  0  0  0  0  0  0  0
    6.1930   -0.2090    0.9500 H   0  0  0  0  0  0  0  0  0  0  0  0
    4.2730    0.8480    2.0620 H   0  0  0  0  0  0  0  0  0  0  0  0
   -4.6660    1.2950   -0.2340 H   0  0  0  0  0  0  0  0  0  0  0  0
   -3.4830    1.8850    0.9600 H   0  0  0  0  0  0  0  0  0  0  0  0
   -3.0440    2.9680   -1.1960 H   0  0  0  0  0  0  0  0  0  0  0  0
   -2.9850    1.3870   -2.0130 H   0  0  0  0  0  0  0  0  0  0  0  0
    3.6810   -1.5690   -2.1990 H   0  0  0  0  0  0  0  0  0  0  0  0
 10 12  1  0  0  0  0
 11 12  2  0  0  0  0
  9 12  1  0  0  0  0
  9 15  1  0  0  0  0
 15 16  1  0  0  0  0
  2 16  1  0  0  0  0
  2  3  1  0  0  0  0
  3  4  1  0  0  0  0
  4  9  1  0  0  0  0
  3  5  1  0  0  0  0
  1  5  2  0  0  0  0
  1  6  1  0  0  0  0
  6 17  2  0  0  0  0
  7 17  1  0  0  0  0
  7 13  2  0  0  0  0
 13 14  1  0  0  0  0
  8 14  2  0  0  0  0
  6  8  1  0  0  0  0
  8 18  1  0  0  0  0
  5 18  1  0  0  0  0
  2 19  1  0  0  0  0
  2 20  1  0  0  0  0
  3 21  1  0  0  0  0
  4 22  1  0  0  0  0
  4 23  1  0  0  0  0
  7 24  1  0  0  0  0
 10 25  1  0  0  0  0
 10 26  1  0  0  0  0
 10 27  1  0  0  0  0
 13 28  1  0  0  0  0
 14 29  1  0  0  0  0
 15 30  1  0  0  0  0
 15 31  1  0  0  0  0
 16 32  1  0  0  0  0
 16 33  1  0  0  0  0
 17 34  1  0  0  0  0
M  END
> <OPENEYE_ISO_SMILES>
CC(=O)N1CCC[C@H](C1)c2nc3ccccc3s2

> <OPENEYE_INCHI>
InChI=1S/C14H16N2OS/c1-10(17)16-8-4-5-11(9-16)14-15-12-6-2-3-7-13(12)18-14/h2-3,6-7,11H,4-5,8-9H2,1H3/t11-/m1/s1

> <OPENEYE_INCHIKEY>
VRHLKEQAZUIMQF-LLVKDONJSA-N

> <FORMULA>
C14H16N2OS

$$$$
