W8A
  -OEChem-02242320043D

 27 27  0     1  0  0  0  0  0999 V2000
   -0.0400   -0.8670   -1.6480 C   0  0  0  0  0  0  0  0  0  0  0  0
   -0.0320   -0.2130   -0.2650 C   0  0  1  0  0  0  0  0  0  0  0  0
   -2.8090   -0.7240    0.0330 C   0  0  0  0  0  0  0  0  0  0  0  0
   -4.1930   -0.1710    0.2570 C   0  0  0  0  0  0  0  0  0  0  0  0
    1.0960    0.7830   -0.1870 C   0  0  0  0  0  0  0  0  0  0  0  0
    3.5400    1.2240    0.1420 C   0  0  0  0  0  0  0  0  0  0  0  0
    4.6950    0.2390    0.4090 C   0  0  0  0  0  0  0  0  0  0  0  0
    2.7250   -0.9160    0.2180 C   0  0  0  0  0  0  0  0  0  0  0  0
    2.3550    0.3590    0.0430 N   0  0  0  0  0  0  0  0  0  0  0  0
    4.0370   -1.0760    0.4320 N   0  0  0  0  0  0  0  0  0  0  0  0
   -4.3540    1.0190    0.3880 O   0  0  0  0  0  0  0  0  0  0  0  0
   -5.2460   -1.0010    0.3100 O   0  0  0  0  0  0  0  0  0  0  0  0
    0.8710    1.9660   -0.3310 O   0  0  0  0  0  0  0  0  0  0  0  0
    1.9400   -1.8440    0.1850 O   0  0  0  0  0  0  0  0  0  0  0  0
   -1.6100    0.6370    0.0110 S   0  0  0  0  0  0  0  0  0  0  0  0
    0.9090   -1.3780   -1.8140 H   0  0  0  0  0  0  0  0  0  0  0  0
   -0.8550   -1.5880   -1.7050 H   0  0  0  0  0  0  0  0  0  0  0  0
   -0.1780   -0.1010   -2.4110 H   0  0  0  0  0  0  0  0  0  0  0  0
    0.1060   -0.9790    0.4980 H   0  0  0  0  0  0  0  0  0  0  0  0
   -2.5590   -1.4150    0.8380 H   0  0  0  0  0  0  0  0  0  0  0  0
   -2.7780   -1.2510   -0.9210 H   0  0  0  0  0  0  0  0  0  0  0  0
    3.4350    1.9240    0.9720 H   0  0  0  0  0  0  0  0  0  0  0  0
    3.7040    1.7610   -0.7920 H   0  0  0  0  0  0  0  0  0  0  0  0
    5.4300    0.2850   -0.3940 H   0  0  0  0  0  0  0  0  0  0  0  0
    5.1630    0.4490    1.3710 H   0  0  0  0  0  0  0  0  0  0  0  0
    4.4830   -1.9250    0.5790 H   0  0  0  0  0  0  0  0  0  0  0  0
   -6.1140   -0.6000    0.4550 H   0  0  0  0  0  0  0  0  0  0  0  0
  3 15  1  0  0  0  0
  2 15  1  0  0  0  0
  1  2  1  0  0  0  0
  5 13  2  0  0  0  0
  3  4  1  0  0  0  0
  2  5  1  0  0  0  0
  5  9  1  0  0  0  0
  4 11  2  0  0  0  0
  4 12  1  0  0  0  0
  6  9  1  0  0  0  0
  8  9  1  0  0  0  0
  6  7  1  0  0  0  0
  8 14  2  0  0  0  0
  8 10  1  0  0  0  0
  7 10  1  0  0  0  0
  1 16  1  0  0  0  0
  1 17  1  0  0  0  0
  1 18  1  0  0  0  0
  2 19  1  0  0  0  0
  3 20  1  0  0  0  0
  3 21  1  0  0  0  0
  6 22  1  0  0  0  0
  6 23  1  0  0  0  0
  7 24  1  0  0  0  0
  7 25  1  0  0  0  0
 10 26  1  0  0  0  0
 12 27  1  0  0  0  0
M  END
> <OPENEYE_ISO_SMILES>
C[C@@H](C(=O)N1CCNC1=O)SCC(=O)O

> <OPENEYE_INCHI>
InChI=1S/C8H12N2O4S/c1-5(15-4-6(11)12)7(13)10-3-2-9-8(10)14/h5H,2-4H2,1H3,(H,9,14)(H,11,12)/t5-/m0/s1

> <OPENEYE_INCHIKEY>
VUVWCZPJVQECKW-YFKPBYRVSA-N

> <FORMULA>
C8H12N2O4S

$$$$
