Y6A
  -OEChem-02242320043D

 48 52  0     0  0  0  0  0  0999 V2000
   -4.9110    1.7140   -0.8250 C   0  0  0  0  0  0  0  0  0  0  0  0
   -4.7960    0.7450   -1.7550 N   0  0  0  0  0  0  0  0  0  0  0  0
   -0.1090   -3.0310    0.7100 C   0  0  0  0  0  0  0  0  0  0  0  0
   -0.9070    0.9140   -0.5000 O   0  0  0  0  0  0  0  0  0  0  0  0
   -1.0310   -0.0150    0.2690 C   0  0  0  0  0  0  0  0  0  0  0  0
   -2.4070   -0.5030    0.6460 C   0  0  0  0  0  0  0  0  0  0  0  0
   -3.4130    0.2280   -0.1290 N   0  0  0  0  0  0  0  0  0  0  0  0
   -4.0320    1.4020    0.2270 C   0  0  0  0  0  0  0  0  0  0  0  0
   -3.9470    2.2430    1.3320 C   0  0  0  0  0  0  0  0  0  0  0  0
   -4.7250    3.3780    1.3870 C   0  0  0  0  0  0  0  0  0  0  0  0
   -5.5930    3.6870    0.3480 C   0  0  0  0  0  0  0  0  0  0  0  0
   -5.6950    2.8720   -0.7410 C   0  0  0  0  0  0  0  0  0  0  0  0
   -3.9340   -0.1330   -1.3800 N   0  0  0  0  0  0  0  0  0  0  0  0
    0.0600   -0.6110    0.7880 N   0  0  0  0  0  0  0  0  0  0  0  0
   -0.0830   -1.8190    1.6050 C   0  0  0  0  0  0  0  0  0  0  0  0
   -1.2450   -3.5940    0.2960 C   0  0  0  0  0  0  0  0  0  0  0  0
   -0.8800   -4.9730   -0.7330 S   0  0  0  0  0  0  0  0  0  0  0  0
    0.8460   -4.6990   -0.5380 C   0  0  0  0  0  0  0  0  0  0  0  0
    1.0460   -3.6410    0.2490 C   0  0  0  0  0  0  0  0  0  0  0  0
    1.3310   -0.0770    0.5460 C   0  0  0  0  0  0  0  0  0  0  0  0
    2.4640   -0.7810    0.9330 C   0  0  0  0  0  0  0  0  0  0  0  0
    3.7170   -0.2560    0.6960 C   0  0  0  0  0  0  0  0  0  0  0  0
    3.8460    0.9810    0.0680 C   0  0  0  0  0  0  0  0  0  0  0  0
    5.1940    1.5480   -0.1890 C   0  0  0  0  0  0  0  0  0  0  0  0
    5.4650    2.7440   -0.7870 C   0  0  0  0  0  0  0  0  0  0  0  0
    6.8060    2.8840   -0.8290 N   0  0  0  0  0  0  0  0  0  0  0  0
    7.3830    1.7510   -0.2440 N   0  0  0  0  0  0  0  0  0  0  0  0
    6.4250    0.9510    0.1460 C   0  0  0  0  0  0  0  0  0  0  0  0
    2.7080    1.6850   -0.3200 C   0  0  0  0  0  0  0  0  0  0  0  0
    1.4570    1.1540   -0.0860 C   0  0  0  0  0  0  0  0  0  0  0  0
   -2.4860   -1.5680    0.4310 H   0  0  0  0  0  0  0  0  0  0  0  0
   -2.5740   -0.3330    1.7100 H   0  0  0  0  0  0  0  0  0  0  0  0
   -3.2730    2.0070    2.1420 H   0  0  0  0  0  0  0  0  0  0  0  0
   -4.6600    4.0310    2.2440 H   0  0  0  0  0  0  0  0  0  0  0  0
   -6.1980    4.5800    0.4060 H   0  0  0  0  0  0  0  0  0  0  0  0
   -6.3740    3.1240   -1.5420 H   0  0  0  0  0  0  0  0  0  0  0  0
   -1.0130   -1.7660    2.1710 H   0  0  0  0  0  0  0  0  0  0  0  0
    0.7580   -1.8940    2.2940 H   0  0  0  0  0  0  0  0  0  0  0  0
   -2.2380   -3.2550    0.5540 H   0  0  0  0  0  0  0  0  0  0  0  0
    1.6260   -5.2970   -0.9870 H   0  0  0  0  0  0  0  0  0  0  0  0
    2.0330   -3.2870    0.5080 H   0  0  0  0  0  0  0  0  0  0  0  0
    2.3640   -1.7390    1.4210 H   0  0  0  0  0  0  0  0  0  0  0  0
    4.5980   -0.8030    0.9980 H   0  0  0  0  0  0  0  0  0  0  0  0
    4.7380    3.4500   -1.1600 H   0  0  0  0  0  0  0  0  0  0  0  0
    7.2870    3.6400   -1.2000 H   0  0  0  0  0  0  0  0  0  0  0  0
    6.5550   -0.0020    0.6360 H   0  0  0  0  0  0  0  0  0  0  0  0
    2.8050    2.6440   -0.8070 H   0  0  0  0  0  0  0  0  0  0  0  0
    0.5740    1.6970   -0.3900 H   0  0  0  0  0  0  0  0  0  0  0  0
 10 11  2  0  0  0  0
 11 12  1  0  0  0  0
  9 10  1  0  0  0  0
  1 12  2  0  0  0  0
  8  9  2  0  0  0  0
 25 26  1  0  0  0  0
 24 25  2  0  0  0  0
  1  8  1  0  0  0  0
  1  2  1  0  0  0  0
 26 27  1  0  0  0  0
  7  8  1  0  0  0  0
 21 22  2  0  0  0  0
 22 23  1  0  0  0  0
  2 13  2  0  0  0  0
 23 24  1  0  0  0  0
 24 28  1  0  0  0  0
  6  7  1  0  0  0  0
  7 13  1  0  0  0  0
 20 21  1  0  0  0  0
 27 28  2  0  0  0  0
 23 29  2  0  0  0  0
  5  6  1  0  0  0  0
 14 20  1  0  0  0  0
 20 30  2  0  0  0  0
  5 14  1  0  0  0  0
  4  5  2  0  0  0  0
 29 30  1  0  0  0  0
 14 15  1  0  0  0  0
  3 15  1  0  0  0  0
  3 19  1  0  0  0  0
  3 16  2  0  0  0  0
 18 19  2  0  0  0  0
 16 17  1  0  0  0  0
 17 18  1  0  0  0  0
  6 31  1  0  0  0  0
  6 32  1  0  0  0  0
  9 33  1  0  0  0  0
 10 34  1  0  0  0  0
 11 35  1  0  0  0  0
 12 36  1  0  0  0  0
 15 37  1  0  0  0  0
 15 38  1  0  0  0  0
 16 39  1  0  0  0  0
 18 40  1  0  0  0  0
 19 41  1  0  0  0  0
 21 42  1  0  0  0  0
 22 43  1  0  0  0  0
 25 44  1  0  0  0  0
 26 45  1  0  0  0  0
 28 46  1  0  0  0  0
 29 47  1  0  0  0  0
 30 48  1  0  0  0  0
M  END
> <OPENEYE_ISO_SMILES>
c1ccc2c(c1)nnn2CC(=O)N(Cc3ccsc3)c4ccc(cc4)c5c[nH]nc5

> <OPENEYE_INCHI>
InChI=1S/C22H18N6OS/c29-22(14-28-21-4-2-1-3-20(21)25-26-28)27(13-16-9-10-30-15-16)19-7-5-17(6-8-19)18-11-23-24-12-18/h1-12,15H,13-14H2,(H,23,24)

> <OPENEYE_INCHIKEY>
PYVQFTGANJRGEP-UHFFFAOYSA-N

> <FORMULA>
C22H18N6OS

$$$$
