US7
  -OEChem-02242320043D

 32 33  0     0  0  0  0  0  0999 V2000
    5.0800    0.1120    0.5550 N   0  0  0  0  0  0  0  0  0  0  0  0
    1.0220   -0.0710   -0.3170 C   0  0  0  0  0  0  0  0  0  0  0  0
    0.2760   -1.2180   -0.5580 C   0  0  0  0  0  0  0  0  0  0  0  0
   -1.1010   -1.1780   -0.4560 C   0  0  0  0  0  0  0  0  0  0  0  0
    2.9990    1.2080   -0.1250 C   0  0  0  0  0  0  0  0  0  0  0  0
    4.5150    1.1450   -0.3250 C   0  0  0  0  0  0  0  0  0  0  0  0
    2.9800   -1.1410    0.4610 C   0  0  0  0  0  0  0  0  0  0  0  0
   -3.9360   -0.9930   -0.8460 O   0  0  0  0  0  0  0  0  0  0  0  0
   -3.4930    0.0490    0.0130 S   0  0  0  0  0  0  0  0  0  0  0  0
   -3.8280    1.4050   -0.2480 O   0  0  0  0  0  0  0  0  0  0  0  0
   -3.8320   -0.3680    1.7450 C   0  0  0  0  0  0  0  0  0  0  0  0
   -1.7370    0.0020   -0.1160 C   0  0  0  0  0  0  0  0  0  0  0  0
    0.3810    1.1110    0.0300 C   0  0  0  0  0  0  0  0  0  0  0  0
   -0.9970    1.1460    0.1240 C   0  0  0  0  0  0  0  0  0  0  0  0
    2.4140   -0.1080   -0.4190 N   0  0  0  0  0  0  0  0  0  0  0  0
    4.4960   -1.2030    0.2610 C   0  0  0  0  0  0  0  0  0  0  0  0
    6.0860    0.0860    0.4820 H   0  0  0  0  0  0  0  0  0  0  0  0
    0.7710   -2.1400   -0.8240 H   0  0  0  0  0  0  0  0  0  0  0  0
   -1.6820   -2.0690   -0.6440 H   0  0  0  0  0  0  0  0  0  0  0  0
    2.7790    1.4810    0.9070 H   0  0  0  0  0  0  0  0  0  0  0  0
    2.5740    1.9530   -0.7980 H   0  0  0  0  0  0  0  0  0  0  0  0
    4.9550    2.1120   -0.0790 H   0  0  0  0  0  0  0  0  0  0  0  0
    4.7360    0.8980   -1.3630 H   0  0  0  0  0  0  0  0  0  0  0  0
    2.7590   -0.8940    1.4990 H   0  0  0  0  0  0  0  0  0  0  0  0
    2.5400   -2.1080    0.2160 H   0  0  0  0  0  0  0  0  0  0  0  0
   -3.4340   -1.3590    1.9650 H   0  0  0  0  0  0  0  0  0  0  0  0
   -3.3560    0.3660    2.3950 H   0  0  0  0  0  0  0  0  0  0  0  0
   -4.9080   -0.3630    1.9170 H   0  0  0  0  0  0  0  0  0  0  0  0
    0.9580    2.0030    0.2220 H   0  0  0  0  0  0  0  0  0  0  0  0
   -1.4960    2.0650    0.3940 H   0  0  0  0  0  0  0  0  0  0  0  0
    4.7160   -1.4770   -0.7710 H   0  0  0  0  0  0  0  0  0  0  0  0
    4.9200   -1.9490    0.9340 H   0  0  0  0  0  0  0  0  0  0  0  0
  9 10  2  0  0  0  0
 13 14  2  0  0  0  0
 12 14  1  0  0  0  0
  8  9  2  0  0  0  0
  9 12  1  0  0  0  0
  9 11  1  0  0  0  0
  2 13  1  0  0  0  0
  4 12  2  0  0  0  0
  5  6  1  0  0  0  0
  5 15  1  0  0  0  0
  2 15  1  0  0  0  0
  2  3  2  0  0  0  0
  1  6  1  0  0  0  0
  3  4  1  0  0  0  0
  7 15  1  0  0  0  0
  1 16  1  0  0  0  0
  7 16  1  0  0  0  0
  1 17  1  0  0  0  0
  3 18  1  0  0  0  0
  4 19  1  0  0  0  0
  5 20  1  0  0  0  0
  5 21  1  0  0  0  0
  6 22  1  0  0  0  0
  6 23  1  0  0  0  0
  7 24  1  0  0  0  0
  7 25  1  0  0  0  0
 11 26  1  0  0  0  0
 11 27  1  0  0  0  0
 11 28  1  0  0  0  0
 13 29  1  0  0  0  0
 14 30  1  0  0  0  0
 16 31  1  0  0  0  0
 16 32  1  0  0  0  0
M  END
> <OPENEYE_ISO_SMILES>
CS(=O)(=O)c1ccc(cc1)N2CCNCC2

> <OPENEYE_INCHI>
InChI=1S/C11H16N2O2S/c1-16(14,15)11-4-2-10(3-5-11)13-8-6-12-7-9-13/h2-5,12H,6-9H2,1H3

> <OPENEYE_INCHIKEY>
KNQFDOLIXOOIGX-UHFFFAOYSA-N

> <FORMULA>
C11H16N2O2S

$$$$
