BAQ
  -OEChem-02242320013D

 13 13  0     0  0  0  0  0  0999 V2000
   -2.0120   -0.0540   -0.0620 O   0  0  0  0  0  0  0  0  0  0  0  0
   -0.8030   -0.0150    0.0160 C   0  0  0  0  0  0  0  0  0  0  0  0
    0.0960   -1.2230    0.1610 C   0  0  0  0  0  0  0  0  0  0  0  0
    1.5030   -0.6950   -0.2040 C   0  0  0  0  0  0  0  0  0  0  0  0
    1.3660    0.8110    0.1120 C   0  0  0  0  0  0  0  0  0  0  0  0
   -0.0650    1.1090   -0.0190 N   0  0  0  0  0  0  0  0  0  0  0  0
    0.0810   -1.5890    1.1880 H   0  0  0  0  0  0  0  0  0  0  0  0
   -0.2070   -2.0090   -0.5300 H   0  0  0  0  0  0  0  0  0  0  0  0
    2.2670   -1.1570    0.4210 H   0  0  0  0  0  0  0  0  0  0  0  0
    1.7170   -0.8540   -1.2600 H   0  0  0  0  0  0  0  0  0  0  0  0
    1.7060    1.0160    1.1270 H   0  0  0  0  0  0  0  0  0  0  0  0
    1.9390    1.4000   -0.6040 H   0  0  0  0  0  0  0  0  0  0  0  0
   -0.4320    2.0010   -0.1170 H   0  0  0  0  0  0  0  0  0  0  0  0
  3  4  1  0  0  0  0
  2  3  1  0  0  0  0
  4  5  1  0  0  0  0
  5  6  1  0  0  0  0
  1  2  2  0  0  0  0
  2  6  1  0  0  0  0
  3  7  1  0  0  0  0
  3  8  1  0  0  0  0
  4  9  1  0  0  0  0
  4 10  1  0  0  0  0
  5 11  1  0  0  0  0
  5 12  1  0  0  0  0
  6 13  1  0  0  0  0
M  END
> <OPENEYE_ISO_SMILES>
C1CC(=O)NC1

> <OPENEYE_INCHI>
InChI=1S/C4H7NO/c6-4-2-1-3-5-4/h1-3H2,(H,5,6)

> <OPENEYE_INCHIKEY>
HNJBEVLQSNELDL-UHFFFAOYSA-N

> <FORMULA>
C4H7NO

$$$$
