@<TRIPOS>MOLECULE
/home/pku/3cl/gett_pdb/6W5L/6W5L_mol2/ligand/6W5L_T0D.pdb
 33 34 0 0 0
SMALL
GASTEIGER

@<TRIPOS>ATOM
      1  C01        7.7280    0.1860   -5.0850 C.3   201  T0D201      0.0081
      2  C02        8.6840   -1.0120   -4.8430 C.3   201  T0D201      0.0594
      3  C03        8.4100   -1.6420   -3.3710 C.3   201  T0D201      0.2139
      4  C05        8.5770   -3.8740   -2.4090 C.2   201  T0D201      0.4215
      5  C07        8.9470   -5.9500   -1.0340 C.3   201  T0D201      0.1761
      6  C08       10.1170   -6.9960   -0.6880 C.3   201  T0D201      0.0312
      7  C09       10.5820   -7.7390   -1.9570 C.3   201  T0D201      0.0022
      8  C10       12.0390   -8.1940   -1.8000 C.3   201  T0D201      0.0001
      9  C11        9.6650   -8.9440   -2.1970 C.3   201  T0D201      0.0001
     10  C12        8.1480   -5.5680    0.2880 C.2   201  T0D201      0.2614
     11  C14        6.2140   -5.9000    1.9660 C.3   201  T0D201      0.1287
     12  C15        4.9200   -5.0910    1.7150 C.3   201  T0D201      0.0335
     13  C16        5.1870   -3.7390    0.9650 C.3   201  T0D201      0.0818
     14  C17        3.8820   -2.9740    0.7220 C.2   201  T0D201      0.2410
     15  C19        5.4150   -1.3060    1.4220 C.3   201  T0D201      0.1156
     16  C20        6.0100   -2.7330    1.7770 C.3   201  T0D201      0.0326
     17  C22        5.7910   -7.1670    2.7340 C.3   201  T0D201      0.2036
     18  C26       10.1430   -0.4960   -4.8790 C.3   201  T0D201      0.0081
     19  C27        8.5020   -2.1210   -5.9590 C.ar  201  T0D201     -0.0185
     20  C28        7.2210   -2.6110   -6.2440 C.ar  201  T0D201      0.0072
     21  C29        7.0290   -3.5800   -7.2380 C.ar  201  T0D201      0.0574
     22  C31        8.0850   -4.1080   -7.9870 C.ar  201  T0D201      0.0114
     23  C32        9.3850   -3.6270   -7.7110 C.ar  201  T0D201      0.0005
     24  C33        9.5930   -2.6390   -6.7070 C.ar  201  T0D201     -0.0041
     25  N06        9.4610   -4.7270   -1.6930 N.am  201  T0D201     -0.1611
     26  N13        6.9550   -6.2270    0.7280 N.am  201  T0D201     -0.2030
     27  N18        4.0080   -1.5570    0.9680 N.am  201  T0D201     -0.2054
     28  O04        9.0590   -2.9290   -3.3140 O.3   201  T0D201     -0.4332
     29  O21        2.8200   -3.4960    0.3340 O.2   201  T0D201     -0.2734
     30  O23        6.9230   -7.9530    3.0320 O.3   201  T0D201     -0.2185
     31  O24        8.6200   -4.6280    0.9860 O.2   201  T0D201     -0.2715
     32  O25        7.3540   -3.9840   -2.2740 O.2   201  T0D201     -0.2246
     33 CL30        5.3470   -4.1600   -7.5400 Cl    201  T0D201     -0.0823
@<TRIPOS>BOND
     1    22    23   ar
     2    22    21   ar
     3    23    24   ar
     4    33    21    1
     5    21    20   ar
     6    24    19   ar
     7    20    19   ar
     8    19     2    1
     9     1     2    1
    10    18     2    1
    11     2     3    1
    12     3    28    1
    13    28     4    1
    14     4    32    2
    15     4    25   am
    16     9     7    1
    17     7     8    1
    18     7     6    1
    19    25     5    1
    20     5     6    1
    21     5    10    1
    22    10    26   am
    23    10    31    2
    24    29    14    2
    25    14    13    1
    26    14    27   am
    27    26    11    1
    28    13    12    1
    29    13    16    1
    30    27    15    1
    31    15    16    1
    32    12    11    1
    33    11    17    1
    34    17    30    1
