@<TRIPOS>MOLECULE
/home/pku/3cl/gett_pdb/7RVZ/7RVZ_mol2/ligand/7RVZ_7YW.pdb
 41 42 0 0 0
SMALL
GASTEIGER

@<TRIPOS>ATOM
      1  C1        -5.9130  -22.5130  -21.7450 C.ar  401  7YW401      0.0114
      2  C10      -10.6630  -21.1070  -20.7350 C.3   401  7YW401      0.0296
      3  C11       -9.2350  -17.1770  -18.6260 C.3   401  7YW401      0.2029
      4  C12       -9.5110  -15.8640  -17.9610 C.2   401  7YW401      0.2642
      5  C13      -12.3680  -20.1650  -19.1760 C.3   401  7YW401      0.0296
      6  C14       -9.1550  -13.4600  -17.9080 C.3   401  7YW401      0.1728
      7  C15      -10.5930  -13.0140  -17.9490 C.2   401  7YW401      0.2612
      8  C16      -10.0950  -20.7640  -18.3350 C.3   401  7YW401      0.0296
      9  C17      -12.4860  -12.0140  -16.7720 C.3   401  7YW401      0.1287
     10  C18      -11.6150  -16.8700  -19.4460 C.3   401  7YW401      0.0344
     11  C19      -13.3450  -12.8190  -15.7850 C.3   401  7YW401      0.0335
     12  C2        -6.7210  -22.7980  -20.6460 C.ar  401  7YW401      0.0575
     13  C20      -13.5050  -14.2760  -16.2240 C.3   401  7YW401      0.0818
     14  C21      -14.3000  -14.3720  -17.5220 C.3   401  7YW401      0.0326
     15  C22      -15.2320  -15.5690  -17.3470 C.3   401  7YW401      0.1156
     16  C23       -5.8800  -11.9150  -19.3400 C.3   401  7YW401      0.0001
     17  C24      -14.3250  -15.1010  -15.2670 C.2   401  7YW401      0.2410
     18  C27      -12.4720  -10.5220  -16.4240 C.3   401  7YW401      0.2036
     19  C3        -6.5930  -22.0800  -19.4570 C.ar  401  7YW401      0.0107
     20  C30      -10.5790  -17.8630  -18.9060 C.3   401  7YW401      0.1439
     21  C34       -8.2730  -12.4520  -18.6590 C.3   401  7YW401      0.0311
     22  C35       -6.7890  -12.7980  -18.4840 C.3   401  7YW401      0.0022
     23  C37       -6.3760  -12.7500  -17.0070 C.3   401  7YW401      0.0001
     24  C4        -5.6630  -21.0550  -19.3600 C.ar  401  7YW401      0.0222
     25  C5        -4.8560  -20.7810  -20.4670 C.ar  401  7YW401     -0.0006
     26  C6        -4.9700  -21.4970  -21.6600 C.ar  401  7YW401      0.0007
     27  C7        -5.5010  -20.2760  -18.0620 C.3   401  7YW401      0.2368
     28  C8       -10.8810  -20.2080  -19.5190 C.3   401  7YW401      0.0930
     29  C9        -7.1700  -18.4570  -18.1010 C.2   401  7YW401      0.4219
     30  N10       -8.3820  -17.9900  -17.7630 N.am  401  7YW401     -0.1585
     31  N13       -8.9970  -14.7690  -18.5190 N.am  401  7YW401     -0.1963
     32  N16      -11.1100  -12.5090  -16.8250 N.am  401  7YW401     -0.2030
     33  N23      -15.2370  -15.8280  -15.9160 N.am  401  7YW401     -0.2054
     34  O26      -14.1350  -15.1060  -14.0640 O.2   401  7YW401     -0.2734
     35  O28      -13.7810   -9.9730  -16.6690 O.3   401  7YW401     -0.2185
     36  O29       -6.3920  -17.9110  -18.8760 O.2   401  7YW401     -0.2245
     37  O32      -10.4030  -18.9020  -19.8710 O.3   401  7YW401     -0.3587
     38  O33      -10.1900  -15.8380  -16.9500 O.2   401  7YW401     -0.2714
     39  O38      -11.2350  -13.1200  -18.9900 O.2   401  7YW401     -0.2715
     40  O8        -6.7130  -19.7200  -17.5350 O.3   401  7YW401     -0.4285
     41 CL1        -7.9460  -24.1160  -20.7610 Cl    401  7YW401     -0.0823
@<TRIPOS>BOND
     1     1    26   ar
     2     1    12   ar
     3    26    25   ar
     4    41    12    1
     5     2    28    1
     6    12    19   ar
     7    25    24   ar
     8    37    28    1
     9    37    20    1
    10    28     5    1
    11    28     8    1
    12    19    24   ar
    13    10    20    1
    14    24    27    1
    15    16    22    1
    16    39     7    2
    17    20     3    1
    18    36    29    2
    19    21    22    1
    20    21     6    1
    21     3     4    1
    22     3    30    1
    23    31     4   am
    24    31     6    1
    25    22    23    1
    26    29    30   am
    27    29    40    1
    28    27    40    1
    29     4    38    2
    30     7     6    1
    31     7    32   am
    32    14    15    1
    33    14    13    1
    34    15    33    1
    35    32     9    1
    36     9    18    1
    37     9    11    1
    38    35    18    1
    39    13    11    1
    40    13    17    1
    41    33    17   am
    42    17    34    2
