@<TRIPOS>MOLECULE
/home/pku/3cl/gett_pdb/5RT9/5RT9_mol2/ligand/5RT9_54G.pdb
 18 18 0 0 0
SMALL
GASTEIGER

@<TRIPOS>ATOM
      1  C2       -48.5480  -28.8620    3.6090 C.ar  201  54G201     -0.0554
      2  C7       -46.3900  -29.1140    4.5210 C.ar  201  54G201     -0.0457
      3  C6       -44.3870  -29.6660    3.1040 C.2   201  54G201      0.1221
      4  C5       -45.8550  -29.4110    3.3260 C.ar  201  54G201      0.0488
      5  C4       -46.7040  -29.4080    2.2530 C.ar  201  54G201      0.1265
      6  C3       -48.0400  -29.1450    2.3850 C.ar  201  54G201     -0.0193
      7  O1       -43.5770  -29.7250    4.0350 O.co2 201  54G201     -0.3035
      8  O2       -43.9270  -29.7650    1.9890 O.co2 201  54G201     -0.8440
      9  O        -46.1980  -29.6650    0.9930 O.3   201  54G201     -0.5061
     10  C1       -47.7240  -28.8610    4.6670 C.ar  201  54G201     -0.0496
     11  C        -48.3280  -28.5140    5.9920 C.3   201  54G201     -0.0397
     12  H1       -49.4510  -28.6640    3.7120 H     201  54G201      0.0621
     13  H2       -45.8430  -29.1050    5.2730 H     201  54G201      0.0628
     14  H3       -48.5130  -29.1000    1.6170 H     201  54G201      0.0654
     15  H5       -45.9100  -30.4640    0.9610 H     201  54G201      0.2922
     16  H6       -47.7690  -28.8630    6.7040 H     201  54G201      0.0278
     17  H7       -48.3930  -27.5500    6.0750 H     201  54G201      0.0278
     18  H8       -49.2140  -28.9040    6.0560 H     201  54G201      0.0278
@<TRIPOS>UNITY_ATOM_ATTR
8 1
charge -1
@<TRIPOS>BOND
     1    15     9    1
     2     9     5    1
     3    14     6    1
     4     8     3   ar
     5     5     6   ar
     6     5     4   ar
     7     6     1   ar
     8     3     4    1
     9     3     7   ar
    10     4     2   ar
    11     1    12    1
    12     1    10   ar
    13     2    10   ar
    14     2    13    1
    15    10    11    1
    16    11    18    1
    17    11    17    1
    18    11    16    1
