YCV
  -OEChem-02242320043D

 45 47  0     0  0  0  0  0  0999 V2000
   -4.4040   -2.3460   -1.4330 N   0  0  0  0  0  0  0  0  0  0  0  0
   -5.8300    0.6690   -0.0170 C   0  0  0  0  0  0  0  0  0  0  0  0
   -5.1480   -0.4380   -0.5180 C   0  0  0  0  0  0  0  0  0  0  0  0
    5.6560   -0.5790   -0.9120 N   0  0  0  0  0  0  0  0  0  0  0  0
   -3.3470   -1.7310   -0.9860 C   0  0  0  0  0  0  0  0  0  0  0  0
    0.3770   -2.8680    1.9190 O   0  0  0  0  0  0  0  0  0  0  0  0
    0.5800    1.5180    0.1220 C   0  0  0  0  0  0  0  0  0  0  0  0
   -3.7570    1.6270    0.7300 C   0  0  0  0  0  0  0  0  0  0  0  0
   -5.1360    1.6860    0.5990 C   0  0  0  0  0  0  0  0  0  0  0  0
   -3.0520    0.5380    0.2400 C   0  0  0  0  0  0  0  0  0  0  0  0
   -1.5790    0.4770    0.3810 C   0  0  0  0  0  0  0  0  0  0  0  0
    5.1320    0.2710    1.0690 O   0  0  0  0  0  0  0  0  0  0  0  0
   -0.7950    1.5670   -0.0070 C   0  0  0  0  0  0  0  0  0  0  0  0
   -5.5450   -1.5810   -1.1650 N   0  0  0  0  0  0  0  0  0  0  0  0
    0.6420    3.7170   -0.7820 C   0  0  0  0  0  0  0  0  0  0  0  0
    1.3360    2.5830   -0.2580 O   0  0  0  0  0  0  0  0  0  0  0  0
   -3.7500   -0.5130   -0.3940 C   0  0  0  0  0  0  0  0  0  0  0  0
   -0.9780   -0.6640    0.9000 C   0  0  0  0  0  0  0  0  0  0  0  0
    0.4130   -0.7160    1.0380 C   0  0  0  0  0  0  0  0  0  0  0  0
    1.0540   -1.9180    1.5860 C   0  0  0  0  0  0  0  0  0  0  0  0
    1.1930    0.3830    0.6460 C   0  0  0  0  0  0  0  0  0  0  0  0
    3.2860   -0.1700   -0.3330 C   0  0  0  0  0  0  0  0  0  0  0  0
    4.7570   -0.1430   -0.0070 C   0  0  0  0  0  0  0  0  0  0  0  0
    7.0860   -0.5530   -0.5950 C   0  0  0  0  0  0  0  0  0  0  0  0
    5.2020   -1.0800   -2.2120 C   0  0  0  0  0  0  0  0  0  0  0  0
    2.5430    0.3390    0.7770 O   0  0  0  0  0  0  0  0  0  0  0  0
   -6.9040    0.7290   -0.1120 H   0  0  0  0  0  0  0  0  0  0  0  0
   -2.3310   -2.0920   -1.0560 H   0  0  0  0  0  0  0  0  0  0  0  0
   -3.2280    2.4340    1.2150 H   0  0  0  0  0  0  0  0  0  0  0  0
   -5.6720    2.5410    0.9840 H   0  0  0  0  0  0  0  0  0  0  0  0
   -1.2660    2.4510   -0.4100 H   0  0  0  0  0  0  0  0  0  0  0  0
   -0.0470    4.1000   -0.0300 H   0  0  0  0  0  0  0  0  0  0  0  0
    1.3600    4.4920   -1.0460 H   0  0  0  0  0  0  0  0  0  0  0  0
    0.0830    3.4220   -1.6700 H   0  0  0  0  0  0  0  0  0  0  0  0
   -1.5840   -1.5050    1.2010 H   0  0  0  0  0  0  0  0  0  0  0  0
    2.1280   -1.9570    1.6910 H   0  0  0  0  0  0  0  0  0  0  0  0
    3.0970    0.4470   -1.2110 H   0  0  0  0  0  0  0  0  0  0  0  0
    2.9780   -1.1960   -0.5370 H   0  0  0  0  0  0  0  0  0  0  0  0
    7.3720   -1.4950   -0.1270 H   0  0  0  0  0  0  0  0  0  0  0  0
    7.6590   -0.4140   -1.5120 H   0  0  0  0  0  0  0  0  0  0  0  0
    7.2910    0.2700    0.0900 H   0  0  0  0  0  0  0  0  0  0  0  0
    5.0210   -2.1530   -2.1450 H   0  0  0  0  0  0  0  0  0  0  0  0
    4.2800   -0.5730   -2.4950 H   0  0  0  0  0  0  0  0  0  0  0  0
    5.9690   -0.8870   -2.9630 H   0  0  0  0  0  0  0  0  0  0  0  0
   -6.4570   -1.8180   -1.3960 H   0  0  0  0  0  0  0  0  0  0  0  0
  1 14  1  0  0  0  0
  1  5  2  0  0  0  0
  3 14  1  0  0  0  0
  5 17  1  0  0  0  0
  3 17  2  0  0  0  0
  2  3  1  0  0  0  0
 10 17  1  0  0  0  0
  6 20  2  0  0  0  0
  2  9  2  0  0  0  0
 19 20  1  0  0  0  0
 18 19  2  0  0  0  0
 11 18  1  0  0  0  0
 10 11  1  0  0  0  0
  8 10  2  0  0  0  0
  8  9  1  0  0  0  0
 19 21  1  0  0  0  0
 11 13  2  0  0  0  0
 21 26  1  0  0  0  0
  7 21  2  0  0  0  0
  7 13  1  0  0  0  0
 22 26  1  0  0  0  0
  7 16  1  0  0  0  0
 22 23  1  0  0  0  0
 15 16  1  0  0  0  0
 12 23  2  0  0  0  0
  4 23  1  0  0  0  0
  4 25  1  0  0  0  0
  4 24  1  0  0  0  0
  2 27  1  0  0  0  0
  5 28  1  0  0  0  0
  8 29  1  0  0  0  0
  9 30  1  0  0  0  0
 13 31  1  0  0  0  0
 15 32  1  0  0  0  0
 15 33  1  0  0  0  0
 15 34  1  0  0  0  0
 18 35  1  0  0  0  0
 20 36  1  0  0  0  0
 22 37  1  0  0  0  0
 22 38  1  0  0  0  0
 24 39  1  0  0  0  0
 24 40  1  0  0  0  0
 24 41  1  0  0  0  0
 25 42  1  0  0  0  0
 25 43  1  0  0  0  0
 25 44  1  0  0  0  0
 14 45  1  0  0  0  0
M  END
> <OPENEYE_ISO_SMILES>
CN(C)C(=O)COc1c(cc(cc1OC)c2cccc3c2cn[nH]3)C=O

> <OPENEYE_INCHI>
InChI=1S/C19H19N3O4/c1-22(2)18(24)11-26-19-13(10-23)7-12(8-17(19)25-3)14-5-4-6-16-15(14)9-20-21-16/h4-10H,11H2,1-3H3,(H,20,21)

> <OPENEYE_INCHIKEY>
LDHIKLLVVUEYPE-UHFFFAOYSA-N

> <FORMULA>
C19H19N3O4

$$$$
