XFD
  -OEChem-02242320043D

 53 57  0     0  0  0  0  0  0999 V2000
   -3.4630    1.9880   -0.2900 C   0  0  0  0  0  0  0  0  0  0  0  0
   -3.2740   -3.0650    1.5930 C   0  0  0  0  0  0  0  0  0  0  0  0
   -3.4240   -5.2370    0.8410 C   0  0  0  0  0  0  0  0  0  0  0  0
   -2.0240   -1.3890    0.3710 N   0  0  0  0  0  0  0  0  0  0  0  0
   -2.4870   -2.7040    0.5070 C   0  0  0  0  0  0  0  0  0  0  0  0
    1.6940    1.2540    1.5490 C   0  0  0  0  0  0  0  0  0  0  0  0
    3.0450    1.5100    1.6740 C   0  0  0  0  0  0  0  0  0  0  0  0
    3.9400    0.9900    0.7550 C   0  0  0  0  0  0  0  0  0  0  0  0
    3.4840    0.2090   -0.2970 C   0  0  0  0  0  0  0  0  0  0  0  0
    5.7470    0.0120   -0.9990 C   0  0  0  0  0  0  0  0  0  0  0  0
    6.5810   -0.6420   -2.1030 C   0  0  0  0  0  0  0  0  0  0  0  0
    2.1310   -0.0540   -0.4300 C   0  0  0  0  0  0  0  0  0  0  0  0
   -2.9100   -0.3920    0.1240 C   0  0  0  0  0  0  0  0  0  0  0  0
   -4.9440    3.1440   -1.8180 C   0  0  0  0  0  0  0  0  0  0  0  0
   -5.2900    4.0170   -0.8070 C   0  0  0  0  0  0  0  0  0  0  0  0
    1.2290    0.4690    0.4940 C   0  0  0  0  0  0  0  0  0  0  0  0
   -0.2200    0.1870    0.3600 C   0  0  0  0  0  0  0  0  0  0  0  0
   -4.7330    3.8850    0.4540 C   0  0  0  0  0  0  0  0  0  0  0  0
   -3.8250    2.8790    0.7160 C   0  0  0  0  0  0  0  0  0  0  0  0
   -1.1120    1.2130    0.1030 C   0  0  0  0  0  0  0  0  0  0  0  0
   -0.7080   -1.1360    0.4940 C   0  0  0  0  0  0  0  0  0  0  0  0
   -4.0280    2.1200   -1.5720 C   0  0  0  0  0  0  0  0  0  0  0  0
   -3.6650    1.2110   -2.6170 C   0  0  0  0  0  0  0  0  0  0  0  0
    8.0790   -0.3320   -2.1350 C   0  0  0  0  0  0  0  0  0  0  0  0
    7.5920   -1.7120   -1.6850 C   0  0  0  0  0  0  0  0  0  0  0  0
   -2.6460   -4.9550   -0.2660 C   0  0  0  0  0  0  0  0  0  0  0  0
   -2.1650   -3.6680   -0.4440 C   0  0  0  0  0  0  0  0  0  0  0  0
   -2.4840    0.9100   -0.0140 C   0  0  0  0  0  0  0  0  0  0  0  0
   -3.7110   -4.3010    1.7240 N   0  0  0  0  0  0  0  0  0  0  0  0
   -3.3770    0.4900   -3.4460 N   0  0  0  0  0  0  0  0  0  0  0  0
    0.0680   -2.0490    0.7210 O   0  0  0  0  0  0  0  0  0  0  0  0
    4.3670   -0.2990   -1.1970 O   0  0  0  0  0  0  0  0  0  0  0  0
    3.6230    2.4870    2.9880 Cl  0  0  0  0  0  0  0  0  0  0  0  0
   -3.5260   -2.3260    2.3390 H   0  0  0  0  0  0  0  0  0  0  0  0
   -3.8030   -6.2390    0.9850 H   0  0  0  0  0  0  0  0  0  0  0  0
    0.9980    1.6570    2.2700 H   0  0  0  0  0  0  0  0  0  0  0  0
    4.9960    1.1940    0.8570 H   0  0  0  0  0  0  0  0  0  0  0  0
    6.0690   -0.3660   -0.0290 H   0  0  0  0  0  0  0  0  0  0  0  0
    5.8840    1.0930   -1.0320 H   0  0  0  0  0  0  0  0  0  0  0  0
    6.0740   -0.7740   -3.0590 H   0  0  0  0  0  0  0  0  0  0  0  0
    1.7760   -0.6620   -1.2490 H   0  0  0  0  0  0  0  0  0  0  0  0
   -3.9610   -0.6230    0.0340 H   0  0  0  0  0  0  0  0  0  0  0  0
   -5.3830    3.2520   -2.7990 H   0  0  0  0  0  0  0  0  0  0  0  0
   -5.9990    4.8080   -1.0010 H   0  0  0  0  0  0  0  0  0  0  0  0
   -5.0110    4.5740    1.2380 H   0  0  0  0  0  0  0  0  0  0  0  0
   -3.3950    2.7830    1.7030 H   0  0  0  0  0  0  0  0  0  0  0  0
   -0.7630    2.2290   -0.0030 H   0  0  0  0  0  0  0  0  0  0  0  0
    8.5580   -0.2610   -3.1110 H   0  0  0  0  0  0  0  0  0  0  0  0
    8.4700    0.3380   -1.3690 H   0  0  0  0  0  0  0  0  0  0  0  0
    7.6630   -1.9490   -0.6240 H   0  0  0  0  0  0  0  0  0  0  0  0
    7.7500   -2.5480   -2.3660 H   0  0  0  0  0  0  0  0  0  0  0  0
   -2.4160   -5.7290   -0.9840 H   0  0  0  0  0  0  0  0  0  0  0  0
   -1.5550   -3.4200   -1.3000 H   0  0  0  0  0  0  0  0  0  0  0  0
 24 25  1  0  0  0  0
 11 24  1  0  0  0  0
 11 25  1  0  0  0  0
 10 11  1  0  0  0  0
 10 32  1  0  0  0  0
  9 32  1  0  0  0  0
  8  9  2  0  0  0  0
  7  8  1  0  0  0  0
  9 12  1  0  0  0  0
  7 33  1  0  0  0  0
  6  7  2  0  0  0  0
 12 16  2  0  0  0  0
  6 16  1  0  0  0  0
 16 17  1  0  0  0  0
 21 31  2  0  0  0  0
 17 21  1  0  0  0  0
 17 20  2  0  0  0  0
  4 21  1  0  0  0  0
 20 28  1  0  0  0  0
  4  5  1  0  0  0  0
  4 13  1  0  0  0  0
 13 28  2  0  0  0  0
  1 28  1  0  0  0  0
  2  5  2  0  0  0  0
  2 29  1  0  0  0  0
  5 27  1  0  0  0  0
  3 29  2  0  0  0  0
  1 19  2  0  0  0  0
 18 19  1  0  0  0  0
 26 27  2  0  0  0  0
  1 22  1  0  0  0  0
  3 26  1  0  0  0  0
 15 18  2  0  0  0  0
 22 23  1  0  0  0  0
 14 22  2  0  0  0  0
 14 15  1  0  0  0  0
 23 30  3  0  0  0  0
  2 34  1  0  0  0  0
  3 35  1  0  0  0  0
  6 36  1  0  0  0  0
  8 37  1  0  0  0  0
 10 38  1  0  0  0  0
 10 39  1  0  0  0  0
 11 40  1  0  0  0  0
 12 41  1  0  0  0  0
 13 42  1  0  0  0  0
 14 43  1  0  0  0  0
 15 44  1  0  0  0  0
 18 45  1  0  0  0  0
 19 46  1  0  0  0  0
 20 47  1  0  0  0  0
 24 48  1  0  0  0  0
 24 49  1  0  0  0  0
 25 50  1  0  0  0  0
 25 51  1  0  0  0  0
 26 52  1  0  0  0  0
 27 53  1  0  0  0  0
M  END
> <OPENEYE_ISO_SMILES>
c1ccc(c(c1)C#N)c2cc(c(=O)n(c2)c3cccnc3)c4cc(cc(c4)Cl)OCC5CC5

> <OPENEYE_INCHI>
InChI=1S/C27H20ClN3O2/c28-22-10-20(11-24(13-22)33-17-18-7-8-18)26-12-21(25-6-2-1-4-19(25)14-29)16-31(27(26)32)23-5-3-9-30-15-23/h1-6,9-13,15-16,18H,7-8,17H2

> <OPENEYE_INCHIKEY>
UIXRRGFIAVPQEF-UHFFFAOYSA-N

> <FORMULA>
C27H20ClN3O2

$$$$
