AG7
  -OEChem-02242320013D

 84 86  0     1  0  0  0  0  0999 V2000
   -1.9770    1.9310    0.2010 C   0  0  0  0  0  0  0  0  0  0  0  0
   -1.1060    1.0120   -0.6150 C   0  0  0  0  0  0  0  0  0  0  0  0
   -1.5310    2.4700    1.1860 O   0  0  0  0  0  0  0  0  0  0  0  0
    0.2830    0.9270    0.0210 C   0  0  1  0  0  0  0  0  0  0  0  0
    0.1750    0.2660    1.3970 C   0  0  0  0  0  0  0  0  0  0  0  0
    1.5110    0.3270    2.0900 C   0  0  0  0  0  0  0  0  0  0  0  0
    1.8790    1.4650    2.7840 C   0  0  0  0  0  0  0  0  0  0  0  0
    3.1040    1.5210    3.4200 C   0  0  0  0  0  0  0  0  0  0  0  0
    3.9640    0.4380    3.3620 C   0  0  0  0  0  0  0  0  0  0  0  0
    3.5950   -0.7010    2.6670 C   0  0  0  0  0  0  0  0  0  0  0  0
    2.3670   -0.7580    2.0360 C   0  0  0  0  0  0  0  0  0  0  0  0
    2.5270    0.2240   -0.7450 N   0  0  0  0  0  0  0  0  0  0  0  0
    3.4080   -0.4810   -1.6800 C   0  0  1  0  0  0  0  0  0  0  0  0
    4.7320    0.2760   -1.8040 C   0  0  0  0  0  0  0  0  0  0  0  0
    4.4880    1.6200   -2.4930 C   0  0  1  0  0  0  0  0  0  0  0  0
    3.6630    2.5270   -1.6080 C   0  0  0  0  0  0  0  0  0  0  0  0
    4.4530    3.4450   -1.0230 N   0  0  0  0  0  0  0  0  0  0  0  0
    2.4640    2.4410   -1.4490 O   0  0  0  0  0  0  0  0  0  0  0  0
    3.6750   -1.8950   -1.1600 C   0  0  0  0  0  0  0  0  0  0  0  0
    2.3760   -2.7020   -1.1850 C   0  0  0  0  0  0  0  0  0  0  0  0
    2.6330   -4.0860   -0.6460 C   0  0  0  0  0  0  0  0  0  0  0  0
    1.6300   -4.9750   -0.5740 O   0  0  0  0  0  0  0  0  0  0  0  0
    3.7430   -4.3950   -0.2800 O   0  0  0  0  0  0  0  0  0  0  0  0
    1.1900    0.1070   -0.8600 C   0  0  0  0  0  0  0  0  0  0  0  0
    0.7160   -0.6580   -1.6730 O   0  0  0  0  0  0  0  0  0  0  0  0
    1.9510   -6.2890   -0.0450 C   0  0  0  0  0  0  0  0  0  0  0  0
    0.6920   -7.1580   -0.0390 C   0  0  0  0  0  0  0  0  0  0  0  0
   -3.4040    2.1830   -0.2140 C   0  0  1  0  0  0  0  0  0  0  0  0
   -4.2270    1.0240    0.1400 N   0  0  0  0  0  0  0  0  0  0  0  0
   -5.3650    0.7740   -0.5380 C   0  0  0  0  0  0  0  0  0  0  0  0
   -5.7080    1.5100   -1.4420 O   0  0  0  0  0  0  0  0  0  0  0  0
   -3.9330    3.4240    0.5080 C   0  0  0  0  0  0  0  0  0  0  0  0
   -3.1340    4.6510    0.0650 C   0  0  0  0  0  0  0  0  0  0  0  0
    5.1630    0.4920    3.9830 F   0  0  0  0  0  0  0  0  0  0  0  0
   -5.4100    3.6250    0.1600 C   0  0  0  0  0  0  0  0  0  0  0  0
    5.8560    3.2700   -1.4180 C   0  0  0  0  0  0  0  0  0  0  0  0
    5.8210    2.3810   -2.6810 C   0  0  0  0  0  0  0  0  0  0  0  0
   -6.1990   -0.4000   -0.1790 C   0  0  0  0  0  0  0  0  0  0  0  0
   -7.4190   -0.8000   -0.7920 C   0  0  0  0  0  0  0  0  0  0  0  0
   -7.7750   -1.9140   -0.1100 C   0  0  0  0  0  0  0  0  0  0  0  0
   -6.8250   -2.1190    0.8130 O   0  0  0  0  0  0  0  0  0  0  0  0
   -5.9570   -1.2790    0.7610 N   0  0  0  0  0  0  0  0  0  0  0  0
   -9.0010   -2.7580   -0.3430 C   0  0  0  0  0  0  0  0  0  0  0  0
   -1.5540    0.0180   -0.6440 H   0  0  0  0  0  0  0  0  0  0  0  0
   -1.0180    1.4010   -1.6300 H   0  0  0  0  0  0  0  0  0  0  0  0
    0.6940    1.9310    0.1310 H   0  0  0  0  0  0  0  0  0  0  0  0
   -0.5690    0.7930    1.9950 H   0  0  0  0  0  0  0  0  0  0  0  0
   -0.1260   -0.7750    1.2770 H   0  0  0  0  0  0  0  0  0  0  0  0
    1.2080    2.3100    2.8280 H   0  0  0  0  0  0  0  0  0  0  0  0
    3.3910    2.4100    3.9620 H   0  0  0  0  0  0  0  0  0  0  0  0
    4.2650   -1.5470    2.6210 H   0  0  0  0  0  0  0  0  0  0  0  0
    2.0770   -1.6480    1.4970 H   0  0  0  0  0  0  0  0  0  0  0  0
    2.9070    0.7760   -0.0430 H   0  0  0  0  0  0  0  0  0  0  0  0
    2.9290   -0.5380   -2.6570 H   0  0  0  0  0  0  0  0  0  0  0  0
    5.1460    0.4470   -0.8100 H   0  0  0  0  0  0  0  0  0  0  0  0
    5.4330   -0.3140   -2.3940 H   0  0  0  0  0  0  0  0  0  0  0  0
    3.9930    1.4700   -3.4530 H   0  0  0  0  0  0  0  0  0  0  0  0
    4.1360    4.1330   -0.4180 H   0  0  0  0  0  0  0  0  0  0  0  0
    4.4170   -2.3810   -1.7940 H   0  0  0  0  0  0  0  0  0  0  0  0
    4.0500   -1.8420   -0.1380 H   0  0  0  0  0  0  0  0  0  0  0  0
    1.6280   -2.2050   -0.5670 H   0  0  0  0  0  0  0  0  0  0  0  0
    2.0120   -2.7730   -2.2100 H   0  0  0  0  0  0  0  0  0  0  0  0
    2.7130   -6.7560   -0.6690 H   0  0  0  0  0  0  0  0  0  0  0  0
    2.3280   -6.1880    0.9730 H   0  0  0  0  0  0  0  0  0  0  0  0
   -0.0690   -6.6900    0.5860 H   0  0  0  0  0  0  0  0  0  0  0  0
    0.3150   -7.2580   -1.0560 H   0  0  0  0  0  0  0  0  0  0  0  0
    0.9330   -8.1440    0.3590 H   0  0  0  0  0  0  0  0  0  0  0  0
   -3.4460    2.3440   -1.2910 H   0  0  0  0  0  0  0  0  0  0  0  0
   -3.9540    0.4370    0.8620 H   0  0  0  0  0  0  0  0  0  0  0  0
   -3.8290    3.2910    1.5850 H   0  0  0  0  0  0  0  0  0  0  0  0
   -3.2980    4.8280   -0.9980 H   0  0  0  0  0  0  0  0  0  0  0  0
   -3.4610    5.5220    0.6330 H   0  0  0  0  0  0  0  0  0  0  0  0
   -2.0730    4.4780    0.2460 H   0  0  0  0  0  0  0  0  0  0  0  0
   -5.9790    2.7510    0.4750 H   0  0  0  0  0  0  0  0  0  0  0  0
   -5.7870    4.5090    0.6740 H   0  0  0  0  0  0  0  0  0  0  0  0
   -5.5150    3.7580   -0.9160 H   0  0  0  0  0  0  0  0  0  0  0  0
    6.3050    4.2360   -1.6490 H   0  0  0  0  0  0  0  0  0  0  0  0
    6.4120    2.7740   -0.6230 H   0  0  0  0  0  0  0  0  0  0  0  0
    6.6650    1.6920   -2.6960 H   0  0  0  0  0  0  0  0  0  0  0  0
    5.7990    2.9890   -3.5850 H   0  0  0  0  0  0  0  0  0  0  0  0
   -7.9400   -0.3260   -1.6100 H   0  0  0  0  0  0  0  0  0  0  0  0
   -8.7710   -3.5390   -1.0690 H   0  0  0  0  0  0  0  0  0  0  0  0
   -9.3120   -3.2150    0.5960 H   0  0  0  0  0  0  0  0  0  0  0  0
   -9.8060   -2.1320   -0.7270 H   0  0  0  0  0  0  0  0  0  0  0  0
  1  2  1  0  0  0  0
  1  3  2  0  0  0  0
  1 28  1  0  0  0  0
  2  4  1  0  0  0  0
  2 44  1  0  0  0  0
  2 45  1  0  0  0  0
  4  5  1  0  0  0  0
  4 24  1  0  0  0  0
  4 46  1  0  0  0  0
  5  6  1  0  0  0  0
  5 47  1  0  0  0  0
  5 48  1  0  0  0  0
  6  7  2  0  0  0  0
  6 11  1  0  0  0  0
  7  8  1  0  0  0  0
  7 49  1  0  0  0  0
  8  9  2  0  0  0  0
  8 50  1  0  0  0  0
  9 10  1  0  0  0  0
  9 34  1  0  0  0  0
 10 11  2  0  0  0  0
 10 51  1  0  0  0  0
 11 52  1  0  0  0  0
 12 13  1  0  0  0  0
 12 24  1  0  0  0  0
 12 53  1  0  0  0  0
 13 14  1  0  0  0  0
 13 19  1  0  0  0  0
 13 54  1  0  0  0  0
 14 15  1  0  0  0  0
 14 55  1  0  0  0  0
 14 56  1  0  0  0  0
 15 16  1  0  0  0  0
 15 37  1  0  0  0  0
 15 57  1  0  0  0  0
 16 17  1  0  0  0  0
 16 18  2  0  0  0  0
 17 36  1  0  0  0  0
 17 58  1  0  0  0  0
 19 20  1  0  0  0  0
 19 59  1  0  0  0  0
 19 60  1  0  0  0  0
 20 21  1  0  0  0  0
 20 61  1  0  0  0  0
 20 62  1  0  0  0  0
 21 22  1  0  0  0  0
 21 23  2  0  0  0  0
 22 26  1  0  0  0  0
 24 25  2  0  0  0  0
 26 27  1  0  0  0  0
 26 63  1  0  0  0  0
 26 64  1  0  0  0  0
 27 65  1  0  0  0  0
 27 66  1  0  0  0  0
 27 67  1  0  0  0  0
 28 29  1  0  0  0  0
 28 32  1  0  0  0  0
 28 68  1  0  0  0  0
 29 30  1  0  0  0  0
 29 69  1  0  0  0  0
 30 31  2  0  0  0  0
 30 38  1  0  0  0  0
 32 33  1  0  0  0  0
 32 35  1  0  0  0  0
 32 70  1  0  0  0  0
 33 71  1  0  0  0  0
 33 72  1  0  0  0  0
 33 73  1  0  0  0  0
 35 74  1  0  0  0  0
 35 75  1  0  0  0  0
 35 76  1  0  0  0  0
 36 37  1  0  0  0  0
 36 77  1  0  0  0  0
 36 78  1  0  0  0  0
 37 79  1  0  0  0  0
 37 80  1  0  0  0  0
 38 39  1  0  0  0  0
 38 42  2  0  0  0  0
 39 40  2  0  0  0  0
 39 81  1  0  0  0  0
 40 41  1  0  0  0  0
 40 43  1  0  0  0  0
 41 42  1  0  0  0  0
 43 82  1  0  0  0  0
 43 83  1  0  0  0  0
 43 84  1  0  0  0  0
M  END
> <OPENEYE_ISO_SMILES>
CCOC(=O)CC[C@H](C[C@@H]1CCNC1=O)NC(=O)[C@H](Cc2ccc(cc2)F)CC(=O)[C@H](C(C)C)NC(=O)c3cc(on3)C

> <OPENEYE_INCHI>
InChI=1S/C31H41FN4O7/c1-5-42-27(38)11-10-24(16-21-12-13-33-29(21)39)34-30(40)22(15-20-6-8-23(32)9-7-20)17-26(37)28(18(2)3)35-31(41)25-14-19(4)43-36-25/h6-9,14,18,21-22,24,28H,5,10-13,15-17H2,1-4H3,(H,33,39)(H,34,40)(H,35,41)/t21-,22+,24+,28-/m0/s1

> <OPENEYE_INCHIKEY>
LMIUALQNZXJHOG-IFILWLFVSA-N

> <FORMULA>
C31H41FN4O7

$$$$
