7XK
  -OEChem-02242320013D

 77 79  0     1  0  0  0  0  0999 V2000
    9.7300    1.5800   -1.6350 C   0  0  0  0  0  0  0  0  0  0  0  0
    1.7990   -0.4930    0.9430 C   0  0  2  0  0  0  0  0  0  0  0  0
    0.5990   -0.1730    0.0910 C   0  0  0  0  0  0  0  0  0  0  0  0
   -1.8030   -0.2190   -0.3180 C   0  0  2  0  0  0  0  0  0  0  0  0
   -3.0390   -0.4190    0.5200 C   0  0  0  0  0  0  0  0  0  0  0  0
   -5.4570   -0.3530    0.8150 C   0  0  1  0  0  0  0  0  0  0  0  0
    2.7130   -0.1400    3.3680 C   0  0  0  0  0  0  0  0  0  0  0  0
   -6.5790    0.5470    0.2920 C   0  0  0  0  0  0  0  0  0  0  0  0
    9.3390    1.9640   -0.3660 C   0  0  0  0  0  0  0  0  0  0  0  0
   -6.1900    2.0130    0.4880 C   0  0  2  0  0  0  0  0  0  0  0  0
   -7.3220    2.9440   -0.0050 C   0  0  0  0  0  0  0  0  0  0  0  0
   -6.8800    3.2360   -1.4560 C   0  0  0  0  0  0  0  0  0  0  0  0
   -3.0580   -2.8760   -0.2950 C   0  0  0  0  0  0  0  0  0  0  0  0
   -5.0090    2.3690   -0.3870 C   0  0  0  0  0  0  0  0  0  0  0  0
   -5.8970   -1.8160    0.7340 C   0  0  0  0  0  0  0  0  0  0  0  0
    8.3210    1.2870    0.2780 C   0  0  0  0  0  0  0  0  0  0  0  0
    1.5970    0.0810    2.3460 C   0  0  0  0  0  0  0  0  0  0  0  0
   -1.9010   -1.0740   -1.5830 C   0  0  0  0  0  0  0  0  0  0  0  0
   -1.8670   -2.5550   -1.2000 C   0  0  0  0  0  0  0  0  0  0  0  0
   -0.5640   -2.8610   -0.4570 C   0  0  0  0  0  0  0  0  0  0  0  0
   -1.9440   -3.4110   -2.4660 C   0  0  0  0  0  0  0  0  0  0  0  0
    7.6930    0.2260   -0.3470 C   0  0  0  0  0  0  0  0  0  0  0  0
    8.0830   -0.1580   -1.6160 C   0  0  0  0  0  0  0  0  0  0  0  0
    9.1020    0.5180   -2.2600 C   0  0  0  0  0  0  0  0  0  0  0  0
    6.5830   -0.5130    0.3560 C   0  0  0  0  0  0  0  0  0  0  0  0
    2.4900    1.2500    2.7670 C   0  0  0  0  0  0  0  0  0  0  0  0
    4.2100   -0.4330    0.5940 C   0  0  0  0  0  0  0  0  0  0  0  0
    2.9970    0.0980    0.3420 N   0  0  0  0  0  0  0  0  0  0  0  0
   -0.6220   -0.6170    0.4510 N   0  0  0  0  0  0  0  0  0  0  0  0
   -4.2550   -0.1590    0.0000 N   0  0  0  0  0  0  0  0  0  0  0  0
   -5.4230    3.0580   -1.4650 N   0  0  0  0  0  0  0  0  0  0  0  0
   -3.8560    2.0770   -0.1510 O   0  0  0  0  0  0  0  0  0  0  0  0
   -6.2950   -2.1200   -0.6050 O   0  0  0  0  0  0  0  0  0  0  0  0
    4.3100   -1.4020    1.3200 O   0  0  0  0  0  0  0  0  0  0  0  0
    0.7300    0.4850   -0.9200 O   0  0  0  0  0  0  0  0  0  0  0  0
   -2.9400   -0.8130    1.6630 O   0  0  0  0  0  0  0  0  0  0  0  0
    5.3110    0.1110    0.0410 O   0  0  0  0  0  0  0  0  0  0  0  0
   10.5230    2.1110   -2.1400 H   0  0  0  0  0  0  0  0  0  0  0  0
    1.9210   -1.5750    1.0070 H   0  0  0  0  0  0  0  0  0  0  0  0
   -1.7190    0.8320   -0.5960 H   0  0  0  0  0  0  0  0  0  0  0  0
   -5.2390   -0.0960    1.8520 H   0  0  0  0  0  0  0  0  0  0  0  0
    2.4220   -0.2910    4.4080 H   0  0  0  0  0  0  0  0  0  0  0  0
    3.5920   -0.6950    3.0410 H   0  0  0  0  0  0  0  0  0  0  0  0
   -6.7370    0.3520   -0.7690 H   0  0  0  0  0  0  0  0  0  0  0  0
   -7.4980    0.3380    0.8400 H   0  0  0  0  0  0  0  0  0  0  0  0
    9.8300    2.7930    0.1220 H   0  0  0  0  0  0  0  0  0  0  0  0
   -5.9610    2.2100    1.5360 H   0  0  0  0  0  0  0  0  0  0  0  0
   -8.2840    2.4320    0.0140 H   0  0  0  0  0  0  0  0  0  0  0  0
   -7.3570    3.8610    0.5840 H   0  0  0  0  0  0  0  0  0  0  0  0
   -7.3500    2.5320   -2.1420 H   0  0  0  0  0  0  0  0  0  0  0  0
   -7.1360    4.2600   -1.7300 H   0  0  0  0  0  0  0  0  0  0  0  0
   -3.9490   -2.3780   -0.6770 H   0  0  0  0  0  0  0  0  0  0  0  0
   -3.2220   -3.9530   -0.2780 H   0  0  0  0  0  0  0  0  0  0  0  0
   -2.8510   -2.5230    0.7160 H   0  0  0  0  0  0  0  0  0  0  0  0
   -5.0680   -2.4610    1.0220 H   0  0  0  0  0  0  0  0  0  0  0  0
   -6.7370   -1.9810    1.4090 H   0  0  0  0  0  0  0  0  0  0  0  0
    8.0160    1.5870    1.2700 H   0  0  0  0  0  0  0  0  0  0  0  0
    0.5700    0.0750    2.7130 H   0  0  0  0  0  0  0  0  0  0  0  0
   -2.8350   -0.8540   -2.1000 H   0  0  0  0  0  0  0  0  0  0  0  0
   -1.0600   -0.8490   -2.2390 H   0  0  0  0  0  0  0  0  0  0  0  0
   -0.3750   -3.9340   -0.4810 H   0  0  0  0  0  0  0  0  0  0  0  0
    0.2600   -2.3360   -0.9390 H   0  0  0  0  0  0  0  0  0  0  0  0
   -0.6510   -2.5300    0.5780 H   0  0  0  0  0  0  0  0  0  0  0  0
   -2.8720   -3.1940   -2.9960 H   0  0  0  0  0  0  0  0  0  0  0  0
   -1.0950   -3.1830   -3.1110 H   0  0  0  0  0  0  0  0  0  0  0  0
   -1.9200   -4.4660   -2.1940 H   0  0  0  0  0  0  0  0  0  0  0  0
    7.5920   -0.9870   -2.1040 H   0  0  0  0  0  0  0  0  0  0  0  0
    9.4040    0.2210   -3.2530 H   0  0  0  0  0  0  0  0  0  0  0  0
    6.5710   -1.5510    0.0250 H   0  0  0  0  0  0  0  0  0  0  0  0
    6.7480   -0.4770    1.4330 H   0  0  0  0  0  0  0  0  0  0  0  0
    2.0520    2.0120    3.4110 H   0  0  0  0  0  0  0  0  0  0  0  0
    3.2230    1.6090    2.0450 H   0  0  0  0  0  0  0  0  0  0  0  0
    2.9170    0.8710   -0.2380 H   0  0  0  0  0  0  0  0  0  0  0  0
   -0.7180   -1.2000    1.2200 H   0  0  0  0  0  0  0  0  0  0  0  0
   -4.3350    0.1570   -0.9140 H   0  0  0  0  0  0  0  0  0  0  0  0
   -4.8350    3.3930   -2.1590 H   0  0  0  0  0  0  0  0  0  0  0  0
   -6.5870   -3.0340   -0.7300 H   0  0  0  0  0  0  0  0  0  0  0  0
 15 33  1  0  0  0  0
 13 19  1  0  0  0  0
  6 15  1  0  0  0  0
  5 36  2  0  0  0  0
 18 19  1  0  0  0  0
  4 18  1  0  0  0  0
  5 30  1  0  0  0  0
  4  5  1  0  0  0  0
 19 21  1  0  0  0  0
 19 20  1  0  0  0  0
  6 30  1  0  0  0  0
  6  8  1  0  0  0  0
  4 29  1  0  0  0  0
  3 29  1  0  0  0  0
  7 26  1  0  0  0  0
 17 26  1  0  0  0  0
  8 10  1  0  0  0  0
 10 11  1  0  0  0  0
 11 12  1  0  0  0  0
  2  3  1  0  0  0  0
  3 35  2  0  0  0  0
 10 14  1  0  0  0  0
  7 17  1  0  0  0  0
 12 31  1  0  0  0  0
  2 17  1  0  0  0  0
  2 28  1  0  0  0  0
 27 34  2  0  0  0  0
 14 31  1  0  0  0  0
 14 32  2  0  0  0  0
 27 28  1  0  0  0  0
 27 37  1  0  0  0  0
  9 16  2  0  0  0  0
 16 22  1  0  0  0  0
  1  9  1  0  0  0  0
 25 37  1  0  0  0  0
 22 25  1  0  0  0  0
 22 23  2  0  0  0  0
  1 24  2  0  0  0  0
 23 24  1  0  0  0  0
  1 38  1  0  0  0  0
  2 39  1  0  0  0  0
  4 40  1  0  0  0  0
  6 41  1  0  0  0  0
  7 42  1  0  0  0  0
  7 43  1  0  0  0  0
  8 44  1  0  0  0  0
  8 45  1  0  0  0  0
  9 46  1  0  0  0  0
 10 47  1  0  0  0  0
 11 48  1  0  0  0  0
 11 49  1  0  0  0  0
 12 50  1  0  0  0  0
 12 51  1  0  0  0  0
 13 52  1  0  0  0  0
 13 53  1  0  0  0  0
 13 54  1  0  0  0  0
 15 55  1  0  0  0  0
 15 56  1  0  0  0  0
 16 57  1  0  0  0  0
 17 58  1  0  0  0  0
 18 59  1  0  0  0  0
 18 60  1  0  0  0  0
 20 61  1  0  0  0  0
 20 62  1  0  0  0  0
 20 63  1  0  0  0  0
 21 64  1  0  0  0  0
 21 65  1  0  0  0  0
 21 66  1  0  0  0  0
 23 67  1  0  0  0  0
 24 68  1  0  0  0  0
 25 69  1  0  0  0  0
 25 70  1  0  0  0  0
 26 71  1  0  0  0  0
 26 72  1  0  0  0  0
 28 73  1  0  0  0  0
 29 74  1  0  0  0  0
 30 75  1  0  0  0  0
 31 76  1  0  0  0  0
 33 77  1  0  0  0  0
M  END
> <OPENEYE_ISO_SMILES>
CC(C)(C)C[C@@H](C(=O)N[C@@H](C[C@@H]1CCNC1=O)CO)NC(=O)[C@H](C2CC2)NC(=O)OCc3ccccc3

> <OPENEYE_INCHI>
InChI=1S/C27H40N4O6/c1-27(2,3)14-21(24(34)29-20(15-32)13-19-11-12-28-23(19)33)30-25(35)22(18-9-10-18)31-26(36)37-16-17-7-5-4-6-8-17/h4-8,18-22,32H,9-16H2,1-3H3,(H,28,33)(H,29,34)(H,30,35)(H,31,36)/t19-,20-,21-,22-/m0/s1

> <OPENEYE_INCHIKEY>
CGQZXXIEHUKDIH-CMOCDZPBSA-N

> <FORMULA>
C27H40N4O6

$$$$
