DTZ
  -OEChem-02242320023D

  5  4  0     0  0  0  0  0  0999 V2000
    2.0990   -0.0460    0.0000 S   0  0  0  0  0  0  0  0  0  0  0  0
   -0.0000   -0.0000   -0.0000 Zn  0  0  0  0  0  0  0  0  0  0  0  0
   -2.0990    0.0460   -0.0000 S   0  0  0  0  0  0  0  0  0  0  0  0
    2.4310    1.2580   -0.0000 H   0  0  0  0  0  0  0  0  0  0  0  0
   -2.4310   -1.2580    0.0000 H   0  0  0  0  0  0  0  0  0  0  0  0
  1  2  1  0  0  0  0
  2  3  1  0  0  0  0
  1  4  1  0  0  0  0
  3  5  1  0  0  0  0
M  END
> <OPENEYE_ISO_SMILES>
S[Zn]S

> <OPENEYE_INCHI>
InChI=1S/2H2S.Zn/h2*1H2;/q;;+2/p-2

> <OPENEYE_INCHIKEY>
KEQKAMYELZXRRN-UHFFFAOYSA-L

> <FORMULA>
H2S2Zn

$$$$
