V45
  -OEChem-02242320043D

 62 64  0     1  0  0  0  0  0999 V2000
    2.4740    1.0510   -0.7700 C   0  0  1  0  0  0  0  0  0  0  0  0
    1.2170   -0.3120    0.5610 C   0  0  0  0  0  0  0  0  0  0  0  0
   -0.9030   -0.6950   -0.6980 C   0  0  1  0  0  0  0  0  0  0  0  0
   -0.8130   -2.2220   -0.6710 C   0  0  0  0  0  0  0  0  0  0  0  0
    0.0080   -2.7050   -1.8680 C   0  0  0  0  0  0  0  0  0  0  0  0
    0.2040   -4.2200   -1.7740 C   0  0  0  0  0  0  0  0  0  0  0  0
   -0.7330   -2.3670   -3.1640 C   0  0  0  0  0  0  0  0  0  0  0  0
   -1.8120   -0.2260    0.4100 C   0  0  0  0  0  0  0  0  0  0  0  0
   -3.9810   -0.1720    1.5180 C   0  0  1  0  0  0  0  0  0  0  0  0
   -5.4290   -0.1690    1.0230 C   0  0  0  0  0  0  0  0  0  0  0  0
   -5.5840    0.8660   -0.0930 C   0  0  2  0  0  0  0  0  0  0  0  0
   -5.3510    2.2920    0.4560 C   0  0  0  0  0  0  0  0  0  0  0  0
   -6.3810    3.1130   -0.3520 C   0  0  0  0  0  0  0  0  0  0  0  0
   -7.0110    0.8900   -0.5970 C   0  0  0  0  0  0  0  0  0  0  0  0
   -3.8550   -1.1000    2.6980 C   0  0  0  0  0  0  0  0  0  0  0  0
    1.1310    0.7520   -1.4630 C   0  0  0  0  0  0  0  0  0  0  0  0
    0.4320   -0.1230   -0.5090 N   0  0  0  0  0  0  0  0  0  0  0  0
   -3.0980   -0.6270    0.4420 N   0  0  0  0  0  0  0  0  0  0  0  0
   -7.4330    2.1600   -0.7270 N   0  0  0  0  0  0  0  0  0  0  0  0
    2.3920    0.3220    0.4880 O   0  0  0  0  0  0  0  0  0  0  0  0
   -7.6760   -0.0920   -0.8470 O   0  0  0  0  0  0  0  0  0  0  0  0
   -3.1050   -2.0450    2.6460 O   0  0  0  0  0  0  0  0  0  0  0  0
   -1.3850    0.5140    1.2710 O   0  0  0  0  0  0  0  0  0  0  0  0
    0.8900   -0.9950    1.5110 O   0  0  0  0  0  0  0  0  0  0  0  0
    2.5790    2.1210   -0.5860 H   0  0  0  0  0  0  0  0  0  0  0  0
   -1.3040   -0.3710   -1.6580 H   0  0  0  0  0  0  0  0  0  0  0  0
   -0.3300   -2.5410    0.2530 H   0  0  0  0  0  0  0  0  0  0  0  0
   -1.8150   -2.6460   -0.7220 H   0  0  0  0  0  0  0  0  0  0  0  0
    0.9800   -2.2120   -1.8650 H   0  0  0  0  0  0  0  0  0  0  0  0
   -0.7680   -4.7130   -1.7760 H   0  0  0  0  0  0  0  0  0  0  0  0
    0.7880   -4.5640   -2.6270 H   0  0  0  0  0  0  0  0  0  0  0  0
    0.7310   -4.4610   -0.8510 H   0  0  0  0  0  0  0  0  0  0  0  0
   -0.8720   -1.2880   -3.2310 H   0  0  0  0  0  0  0  0  0  0  0  0
   -0.1480   -2.7110   -4.0170 H   0  0  0  0  0  0  0  0  0  0  0  0
   -1.7050   -2.8600   -3.1660 H   0  0  0  0  0  0  0  0  0  0  0  0
   -3.6970    0.8370    1.8180 H   0  0  0  0  0  0  0  0  0  0  0  0
   -5.6830   -1.1580    0.6410 H   0  0  0  0  0  0  0  0  0  0  0  0
   -6.0940    0.0840    1.8490 H   0  0  0  0  0  0  0  0  0  0  0  0
   -4.8930    0.6530   -0.9080 H   0  0  0  0  0  0  0  0  0  0  0  0
   -5.5650    2.3400    1.5230 H   0  0  0  0  0  0  0  0  0  0  0  0
   -4.3350    2.6290    0.2480 H   0  0  0  0  0  0  0  0  0  0  0  0
   -6.7970    3.9090    0.2650 H   0  0  0  0  0  0  0  0  0  0  0  0
   -5.9150    3.5320   -1.2430 H   0  0  0  0  0  0  0  0  0  0  0  0
   -4.4350   -0.9200    3.5910 H   0  0  0  0  0  0  0  0  0  0  0  0
    0.5690    1.6720   -1.6220 H   0  0  0  0  0  0  0  0  0  0  0  0
    1.2950    0.2360   -2.4090 H   0  0  0  0  0  0  0  0  0  0  0  0
   -3.4390   -1.2190   -0.2480 H   0  0  0  0  0  0  0  0  0  0  0  0
   -8.3190    2.4140   -1.0310 H   0  0  0  0  0  0  0  0  0  0  0  0
    3.6410    0.5380   -1.6160 C   0  0  0  0  0  0  0  0  0  0  0  0
    5.5340    2.1490   -1.3300 C   0  0  0  0  0  0  0  0  0  0  0  0
    6.7280    2.5290   -0.7460 C   0  0  0  0  0  0  0  0  0  0  0  0
    7.3360    1.7050    0.1830 C   0  0  0  0  0  0  0  0  0  0  0  0
    6.7480    0.5020    0.5290 C   0  0  0  0  0  0  0  0  0  0  0  0
    5.5520    0.1230   -0.0550 C   0  0  0  0  0  0  0  0  0  0  0  0
    4.9430    0.9500   -0.9800 C   0  0  0  0  0  0  0  0  0  0  0  0
    7.5100   -0.5330    1.6960 Cl  0  0  0  0  0  0  0  0  0  0  0  0
    3.5940   -0.5500   -1.6770 H   0  0  0  0  0  0  0  0  0  0  0  0
    3.5760    0.9610   -2.6190 H   0  0  0  0  0  0  0  0  0  0  0  0
    5.0600    2.7930   -2.0560 H   0  0  0  0  0  0  0  0  0  0  0  0
    7.1870    3.4680   -1.0160 H   0  0  0  0  0  0  0  0  0  0  0  0
    8.2690    2.0010    0.6380 H   0  0  0  0  0  0  0  0  0  0  0  0
    5.0930   -0.8170    0.2150 H   0  0  0  0  0  0  0  0  0  0  0  0
 14 21  2  0  0  0  0
 14 19  1  0  0  0  0
 13 19  1  0  0  0  0
 11 14  1  0  0  0  0
 12 13  1  0  0  0  0
 10 11  1  0  0  0  0
 11 12  1  0  0  0  0
  9 10  1  0  0  0  0
  9 15  1  0  0  0  0
 15 22  2  0  0  0  0
  9 18  1  0  0  0  0
  8 18  1  0  0  0  0
  2 24  2  0  0  0  0
  8 23  2  0  0  0  0
  3  8  1  0  0  0  0
  2 20  1  0  0  0  0
  2 17  1  0  0  0  0
  1 20  1  0  0  0  0
  3 17  1  0  0  0  0
  3  4  1  0  0  0  0
 16 17  1  0  0  0  0
  1 16  1  0  0  0  0
  4  5  1  0  0  0  0
  5  6  1  0  0  0  0
  5  7  1  0  0  0  0
  1 25  1  0  0  0  0
  3 26  1  0  0  0  0
  4 27  1  0  0  0  0
  4 28  1  0  0  0  0
  5 29  1  0  0  0  0
  6 30  1  0  0  0  0
  6 31  1  0  0  0  0
  6 32  1  0  0  0  0
  7 33  1  0  0  0  0
  7 34  1  0  0  0  0
  7 35  1  0  0  0  0
  9 36  1  0  0  0  0
 10 37  1  0  0  0  0
 10 38  1  0  0  0  0
 11 39  1  0  0  0  0
 12 40  1  0  0  0  0
 12 41  1  0  0  0  0
 13 42  1  0  0  0  0
 13 43  1  0  0  0  0
 15 44  1  0  0  0  0
 16 45  1  0  0  0  0
 16 46  1  0  0  0  0
 18 47  1  0  0  0  0
 19 48  1  0  0  0  0
  1 49  1  0  0  0  0
 50 51  1  0  0  0  0
 51 52  2  0  0  0  0
 52 53  1  0  0  0  0
 53 54  2  0  0  0  0
 54 55  1  0  0  0  0
 50 55  2  0  0  0  0
 49 55  1  0  0  0  0
 53 56  1  0  0  0  0
 49 57  1  0  0  0  0
 49 58  1  0  0  0  0
 50 59  1  0  0  0  0
 51 60  1  0  0  0  0
 52 61  1  0  0  0  0
 54 62  1  0  0  0  0
M  END
> <OPENEYE_ISO_SMILES>
CC(C)C[C@@H](C(=O)N[C@@H](C[C@@H]1CCNC1=O)C=O)N2C[C@@H](OC2=O)Cc3cccc(c3)Cl

> <OPENEYE_INCHI>
InChI=1S/C23H30ClN3O5/c1-14(2)8-20(22(30)26-18(13-28)11-16-6-7-25-21(16)29)27-12-19(32-23(27)31)10-15-4-3-5-17(24)9-15/h3-5,9,13-14,16,18-20H,6-8,10-12H2,1-2H3,(H,25,29)(H,26,30)/t16-,18-,19-,20-/m0/s1

> <OPENEYE_INCHIKEY>
HPMLVVHQNDVVJA-LEAZDLGRSA-N

> <FORMULA>
C23H30ClN3O5

$$$$
