W0A
  -OEChem-02242320043D

 31 32  0     0  0  0  0  0  0999 V2000
   -1.5120    0.9850    0.7730 N   0  0  0  0  0  0  0  0  0  0  0  0
    0.6730    1.1330   -0.5230 C   0  0  0  0  0  0  0  0  0  0  0  0
   -0.7470    0.6740   -0.3080 C   0  0  0  0  0  0  0  0  0  0  0  0
   -2.7370    0.3740    0.5990 C   0  0  0  0  0  0  0  0  0  0  0  0
   -3.9050    0.3180    1.3470 C   0  0  0  0  0  0  0  0  0  0  0  0
   -4.9820   -0.4030    0.8780 C   0  0  0  0  0  0  0  0  0  0  0  0
   -3.7680   -1.0240   -1.0880 C   0  0  0  0  0  0  0  0  0  0  0  0
    3.3600    1.3220   -0.6140 O   0  0  0  0  0  0  0  0  0  0  0  0
    2.9280    0.2940   -0.1390 C   0  0  0  0  0  0  0  0  0  0  0  0
    3.8780   -0.7690    0.3500 C   0  0  0  0  0  0  0  0  0  0  0  0
    5.3190   -0.3030    0.1320 C   0  0  0  0  0  0  0  0  0  0  0  0
    6.2840   -1.3820    0.6280 C   0  0  0  0  0  0  0  0  0  0  0  0
    1.5970    0.1010   -0.0480 N   0  0  0  0  0  0  0  0  0  0  0  0
   -1.4190   -0.0780   -1.1300 N   0  0  0  0  0  0  0  0  0  0  0  0
   -2.6610   -0.3030   -0.6300 C   0  0  0  0  0  0  0  0  0  0  0  0
   -4.9070   -1.0710   -0.3360 C   0  0  0  0  0  0  0  0  0  0  0  0
   -1.2440    1.5330    1.5280 H   0  0  0  0  0  0  0  0  0  0  0  0
    0.8410    1.3110   -1.5850 H   0  0  0  0  0  0  0  0  0  0  0  0
    0.8440    2.0560    0.0310 H   0  0  0  0  0  0  0  0  0  0  0  0
   -3.9680    0.8360    2.2930 H   0  0  0  0  0  0  0  0  0  0  0  0
   -5.8910   -0.4470    1.4590 H   0  0  0  0  0  0  0  0  0  0  0  0
   -3.7200   -1.5480   -2.0310 H   0  0  0  0  0  0  0  0  0  0  0  0
    3.7100   -0.9460    1.4120 H   0  0  0  0  0  0  0  0  0  0  0  0
    3.7070   -1.6920   -0.2040 H   0  0  0  0  0  0  0  0  0  0  0  0
    5.4870   -0.1260   -0.9300 H   0  0  0  0  0  0  0  0  0  0  0  0
    5.4900    0.6200    0.6860 H   0  0  0  0  0  0  0  0  0  0  0  0
    6.1160   -1.5590    1.6910 H   0  0  0  0  0  0  0  0  0  0  0  0
    6.1140   -2.3050    0.0740 H   0  0  0  0  0  0  0  0  0  0  0  0
    7.3110   -1.0490    0.4730 H   0  0  0  0  0  0  0  0  0  0  0  0
    1.2510   -0.7220    0.3330 H   0  0  0  0  0  0  0  0  0  0  0  0
   -5.7600   -1.6290   -0.6930 H   0  0  0  0  0  0  0  0  0  0  0  0
  7 16  2  0  0  0  0
  7 15  1  0  0  0  0
  6 16  1  0  0  0  0
 14 15  1  0  0  0  0
  4 15  2  0  0  0  0
  3 14  2  0  0  0  0
  5  6  2  0  0  0  0
  4  5  1  0  0  0  0
  1  4  1  0  0  0  0
  2  3  1  0  0  0  0
  1  3  1  0  0  0  0
  2 13  1  0  0  0  0
  9 13  1  0  0  0  0
  8  9  2  0  0  0  0
  9 10  1  0  0  0  0
 10 11  1  0  0  0  0
 11 12  1  0  0  0  0
  1 17  1  0  0  0  0
  2 18  1  0  0  0  0
  2 19  1  0  0  0  0
  5 20  1  0  0  0  0
  6 21  1  0  0  0  0
  7 22  1  0  0  0  0
 10 23  1  0  0  0  0
 10 24  1  0  0  0  0
 11 25  1  0  0  0  0
 11 26  1  0  0  0  0
 12 27  1  0  0  0  0
 12 28  1  0  0  0  0
 12 29  1  0  0  0  0
 13 30  1  0  0  0  0
 16 31  1  0  0  0  0
M  END
> <OPENEYE_ISO_SMILES>
CCCC(=O)NCc1[nH]c2ccccc2n1

> <OPENEYE_INCHI>
InChI=1S/C12H15N3O/c1-2-5-12(16)13-8-11-14-9-6-3-4-7-10(9)15-11/h3-4,6-7H,2,5,8H2,1H3,(H,13,16)(H,14,15)

> <OPENEYE_INCHIKEY>
MXDONONSXPZRMO-UHFFFAOYSA-N

> <FORMULA>
C12H15N3O

$$$$
