VXG
  -OEChem-02242320043D

 32 33  0     1  0  0  0  0  0999 V2000
   -1.9510   -0.5220    0.3780 N   0  0  0  0  0  0  0  0  0  0  0  0
    1.5180   -0.3780    0.2900 C   0  0  0  0  0  0  0  0  0  0  0  0
    2.7520   -0.1070    0.8510 C   0  0  0  0  0  0  0  0  0  0  0  0
    3.8840   -0.7390    0.3710 C   0  0  0  0  0  0  0  0  0  0  0  0
    3.7810   -1.6420   -0.6710 C   0  0  0  0  0  0  0  0  0  0  0  0
    2.5470   -1.9130   -1.2320 C   0  0  0  0  0  0  0  0  0  0  0  0
   -0.7690   -0.7300    1.2350 C   0  0  0  0  0  0  0  0  0  0  0  0
   -1.8970    0.8940   -0.0520 C   0  0  0  0  0  0  0  0  0  0  0  0
    0.7370    2.9580    0.6670 O   0  0  0  0  0  0  0  0  0  0  0  0
   -0.0470    2.5940   -0.1760 C   0  0  0  0  0  0  0  0  0  0  0  0
   -0.3870    1.1310   -0.3070 C   0  0  1  0  0  0  0  0  0  0  0  0
    0.2840    0.3110    0.8140 C   0  0  2  0  0  0  0  0  0  0  0  0
    1.4160   -1.2770   -0.7550 C   0  0  0  0  0  0  0  0  0  0  0  0
   -2.8850   -1.4360    0.0480 C   0  0  0  0  0  0  0  0  0  0  0  0
   -4.0360   -1.0480   -0.8450 C   0  0  0  0  0  0  0  0  0  0  0  0
   -2.8010   -2.5690    0.4700 O   0  0  0  0  0  0  0  0  0  0  0  0
   -0.6160    3.4910   -0.9960 O   0  0  0  0  0  0  0  0  0  0  0  0
    2.8320    0.5980    1.6650 H   0  0  0  0  0  0  0  0  0  0  0  0
    4.8470   -0.5280    0.8090 H   0  0  0  0  0  0  0  0  0  0  0  0
    4.6650   -2.1350   -1.0470 H   0  0  0  0  0  0  0  0  0  0  0  0
    2.4670   -2.6180   -2.0470 H   0  0  0  0  0  0  0  0  0  0  0  0
   -1.0380   -0.5840    2.2810 H   0  0  0  0  0  0  0  0  0  0  0  0
   -0.3780   -1.7370    1.0900 H   0  0  0  0  0  0  0  0  0  0  0  0
   -2.4700    1.0400   -0.9680 H   0  0  0  0  0  0  0  0  0  0  0  0
   -2.2640    1.5500    0.7380 H   0  0  0  0  0  0  0  0  0  0  0  0
   -0.0980    0.7560   -1.2880 H   0  0  0  0  0  0  0  0  0  0  0  0
    0.5400    0.9570    1.6540 H   0  0  0  0  0  0  0  0  0  0  0  0
    0.4520   -1.4880   -1.1940 H   0  0  0  0  0  0  0  0  0  0  0  0
   -3.9430    0.0020   -1.1220 H   0  0  0  0  0  0  0  0  0  0  0  0
   -4.0200   -1.6640   -1.7450 H   0  0  0  0  0  0  0  0  0  0  0  0
   -4.9750   -1.2020   -0.3150 H   0  0  0  0  0  0  0  0  0  0  0  0
   -0.3670    4.4170   -0.8740 H   0  0  0  0  0  0  0  0  0  0  0  0
  9 10  2  0  0  0  0
  5  6  2  0  0  0  0
  6 13  1  0  0  0  0
  4  5  1  0  0  0  0
 10 11  1  0  0  0  0
 10 17  1  0  0  0  0
  2 13  2  0  0  0  0
  3  4  2  0  0  0  0
  8 11  1  0  0  0  0
 11 12  1  0  0  0  0
  2  3  1  0  0  0  0
  2 12  1  0  0  0  0
  1  8  1  0  0  0  0
  7 12  1  0  0  0  0
  1  7  1  0  0  0  0
  1 14  1  0  0  0  0
 14 15  1  0  0  0  0
 14 16  2  0  0  0  0
  3 18  1  0  0  0  0
  4 19  1  0  0  0  0
  5 20  1  0  0  0  0
  6 21  1  0  0  0  0
  7 22  1  0  0  0  0
  7 23  1  0  0  0  0
  8 24  1  0  0  0  0
  8 25  1  0  0  0  0
 11 26  1  0  0  0  0
 12 27  1  0  0  0  0
 13 28  1  0  0  0  0
 15 29  1  0  0  0  0
 15 30  1  0  0  0  0
 15 31  1  0  0  0  0
 17 32  1  0  0  0  0
M  END
> <OPENEYE_ISO_SMILES>
CC(=O)N1C[C@H]([C@@H](C1)C(=O)O)c2ccccc2

> <OPENEYE_INCHI>
InChI=1S/C13H15NO3/c1-9(15)14-7-11(12(8-14)13(16)17)10-5-3-2-4-6-10/h2-6,11-12H,7-8H2,1H3,(H,16,17)/t11-,12+/m0/s1

> <OPENEYE_INCHIKEY>
UJHLINFGICYWPQ-NWDGAFQWSA-N

> <FORMULA>
C13H15NO3

$$$$
