4HP
  -OEChem-02242320003D

 19 19  0     0  0  0  0  0  0999 V2000
    0.0000    0.2010    2.5100 C   0  0  0  0  0  0  0  0  0  0  0  0
    0.0040    1.3000    2.0070 O   0  0  0  0  0  0  0  0  0  0  0  0
    0.0000    0.0730    3.8460 O   0  0  0  0  0  0  0  0  0  0  0  0
   -0.0030   -1.0260    1.6360 C   0  0  0  0  0  0  0  0  0  0  0  0
   -0.0020   -0.6120    0.1870 C   0  0  0  0  0  0  0  0  0  0  0  0
    1.1960   -0.4260   -0.4760 C   0  0  0  0  0  0  0  0  0  0  0  0
    1.2000   -0.0460   -1.8040 C   0  0  0  0  0  0  0  0  0  0  0  0
    0.0000    0.1490   -2.4720 C   0  0  0  0  0  0  0  0  0  0  0  0
   -1.2000   -0.0380   -1.8040 C   0  0  0  0  0  0  0  0  0  0  0  0
   -1.1990   -0.4230   -0.4770 C   0  0  0  0  0  0  0  0  0  0  0  0
    0.0020    0.5220   -3.7780 O   0  0  0  0  0  0  0  0  0  0  0  0
    0.0020    0.8610    4.4060 H   0  0  0  0  0  0  0  0  0  0  0  0
    0.8840   -1.6230    1.8440 H   0  0  0  0  0  0  0  0  0  0  0  0
   -0.8950   -1.6170    1.8440 H   0  0  0  0  0  0  0  0  0  0  0  0
    2.1300   -0.5780    0.0440 H   0  0  0  0  0  0  0  0  0  0  0  0
    2.1370    0.0990   -2.3210 H   0  0  0  0  0  0  0  0  0  0  0  0
   -2.1360    0.1130   -2.3220 H   0  0  0  0  0  0  0  0  0  0  0  0
   -2.1340   -0.5700    0.0420 H   0  0  0  0  0  0  0  0  0  0  0  0
   -0.0000   -0.2900   -4.3020 H   0  0  0  0  0  0  0  0  0  0  0  0
  1  2  2  0  0  0  0
  1  3  1  0  0  0  0
  1  4  1  0  0  0  0
  3 12  1  0  0  0  0
  4  5  1  0  0  0  0
  4 13  1  0  0  0  0
  4 14  1  0  0  0  0
  5  6  1  0  0  0  0
  5 10  2  0  0  0  0
  6  7  2  0  0  0  0
  6 15  1  0  0  0  0
  7  8  1  0  0  0  0
  7 16  1  0  0  0  0
  8  9  2  0  0  0  0
  8 11  1  0  0  0  0
  9 10  1  0  0  0  0
  9 17  1  0  0  0  0
 10 18  1  0  0  0  0
 11 19  1  0  0  0  0
M  END
> <OPENEYE_ISO_SMILES>
c1cc(ccc1CC(=O)O)O

> <OPENEYE_INCHI>
InChI=1S/C8H8O3/c9-7-3-1-6(2-4-7)5-8(10)11/h1-4,9H,5H2,(H,10,11)

> <OPENEYE_INCHIKEY>
XQXPVVBIMDBYFF-UHFFFAOYSA-N

> <FORMULA>
C8H8O3

$$$$
