@<TRIPOS>MOLECULE
/home/pku/3cl/gett_pdb/7T44/7T44_mol2/ligand/7T44_ESS.pdb
 29 31 0 0 0
SMALL
GASTEIGER

@<TRIPOS>ATOM
      1  C33        9.2880   26.7450   24.9230 C.3   501  ESS501      0.0466
      2  C32        9.3340   28.2210   22.6730 C.3   501  ESS501      0.0902
      3  N10       10.2310   20.2910   27.2440 N.am  501  ESS501     -0.2030
      4  C23       10.6710   26.0150   24.8090 C.3   501  ESS501      0.1707
      5  C24       11.2440   27.4410   24.4540 C.3   501  ESS501      0.0466
      6  C25        9.8230   27.9640   24.1390 C.3   501  ESS501      0.0392
      7  C26        9.3150   29.4090   24.4430 C.3   501  ESS501      0.0902
      8  C17        6.7670   21.9830   26.9190 C.3   501  ESS501      0.0326
      9  C19        9.0530   18.3240   28.2170 C.3   501  ESS501      0.2036
     10  C16        5.6300   22.6440   26.0960 C.3   501  ESS501      0.1156
     11  C11        8.9100   19.7760   27.6690 C.3   501  ESS501      0.1287
     12  C12        7.9250   19.7450   26.4470 C.3   501  ESS501      0.0335
     13  C13        7.5980   21.1600   25.9080 C.3   501  ESS501      0.0818
     14  C14        6.6850   21.0450   24.6970 C.2   501  ESS501      0.2410
     15  C02       11.3380   24.0040   25.9960 C.2   501  ESS501      0.4214
     16  C04       12.1650   21.9670   27.1950 C.3   501  ESS501      0.1761
     17  C05       13.2220   21.6560   28.2860 C.3   501  ESS501      0.0312
     18  C06       14.6440   22.1240   27.9010 C.3   501  ESS501      0.0022
     19  C07       15.0550   21.6180   26.5190 C.3   501  ESS501      0.0001
     20  C08       15.7070   21.6840   28.9070 C.3   501  ESS501      0.0001
     21  C09       10.7440   21.5020   27.6970 C.2   501  ESS501      0.2614
     22  N03       12.1620   23.4100   26.9190 N.am  501  ESS501     -0.1611
     23  N15        5.5960   21.8920   24.8340 N.am  501  ESS501     -0.2054
     24  N27        8.9370   29.6290   22.9960 N.3   501  ESS501     -0.2180
     25  O01       10.6280   23.3490   25.2250 O.2   501  ESS501     -0.2246
     26  O18        6.8450   20.3370   23.7080 O.2   501  ESS501     -0.2734
     27  O20        9.8000   18.4400   29.4060 O.3   501  ESS501     -0.2185
     28  O21       10.0880   22.2030   28.4590 O.2   501  ESS501     -0.2715
     29  O22       11.2900   25.3860   25.9190 O.3   501  ESS501     -0.4373
@<TRIPOS>BOND
     1     2    24    1
     2     2     6    1
     3    24     7    1
     4    26    14    2
     5     6     7    1
     6     6     5    1
     7     6     1    1
     8     5     4    1
     9    14    23   am
    10    14    13    1
    11     4     1    1
    12     4    29    1
    13    23    10    1
    14    25    15    2
    15    13    12    1
    16    13     8    1
    17    29    15    1
    18    15    22   am
    19    10     8    1
    20    12    11    1
    21    19    18    1
    22    22    16    1
    23    16    21    1
    24    16    17    1
    25     3    11    1
    26     3    21   am
    27    11     9    1
    28    21    28    2
    29    18    17    1
    30    18    20    1
    31     9    27    1
