@<TRIPOS>MOLECULE
/home/pku/3cl/gett_pdb/5SA6/5SA6_mol2/ligand/5SA6_O3G.pdb
 16 17 0 0 0
SMALL
GASTEIGER

@<TRIPOS>ATOM
      1  N1        49.4640  -47.2030   21.7250 N.3   401  O3G401     -0.2085
      2  C4        50.7530  -49.3620   21.6510 C.ar  401  O3G401     -0.0046
      3  C5        50.6840  -47.9030   22.1280 C.3   401  O3G401      0.1154
      4  C6        49.1670  -46.1930   22.7360 C.3   401  O3G401      0.1154
      5  C7        47.8090  -45.5590   22.4770 C.ar  401  O3G401     -0.0048
      6  C8        47.6350  -44.7220   21.3830 C.ar  401  O3G401     -0.0029
      7  C10       45.3600  -44.4050   22.0130 C.ar  401  O3G401     -0.0000
      8  C13       50.7700  -50.3960   22.5840 C.ar  401  O3G401     -0.0006
      9  C1        50.9370  -51.9630   20.8240 C.ar  401  O3G401      0.1401
     10  C11       45.5340  -45.2450   23.1110 C.ar  401  O3G401     -0.0003
     11  C12       46.7730  -45.8160   23.3510 C.ar  401  O3G401     -0.0029
     12  C14       50.8730  -51.7080   22.1690 C.ar  401  O3G401      0.0294
     13  C2        50.8790  -50.9600   19.8820 C.ar  401  O3G401      0.0294
     14  C3        50.7850  -49.6480   20.2940 C.ar  401  O3G401     -0.0006
     15  C9        46.4100  -44.1330   21.1490 C.ar  401  O3G401     -0.0003
     16  F1        51.0650  -53.2300   20.3940 F     401  O3G401     -0.2042
@<TRIPOS>BOND
     1    13    14   ar
     2    13     9   ar
     3    14     2   ar
     4    16     9    1
     5     9    12   ar
     6    15     6   ar
     7    15     7   ar
     8     6     5   ar
     9     2     3    1
    10     2     8   ar
    11     1     3    1
    12     1     4    1
    13     7    10   ar
    14    12     8   ar
    15     5     4    1
    16     5    11   ar
    17    10    11   ar
