T2G
  -OEChem-02242320043D

 37 38  0     0  0  0  0  0  0999 V2000
   -2.8280    0.0510    0.3610 N   0  0  0  0  0  0  0  0  0  0  0  0
    2.8020   -1.4820    0.5980 C   0  0  0  0  0  0  0  0  0  0  0  0
    2.1170   -0.7690   -0.3680 C   0  0  0  0  0  0  0  0  0  0  0  0
    0.8830   -1.3560   -1.0040 C   0  0  0  0  0  0  0  0  0  0  0  0
   -1.4900   -1.7050   -0.6720 C   0  0  0  0  0  0  0  0  0  0  0  0
   -2.6570   -1.4070    0.2750 C   0  0  0  0  0  0  0  0  0  0  0  0
   -0.5210    0.4850   -0.2950 C   0  0  0  0  0  0  0  0  0  0  0  0
    2.5630    0.4820   -0.7510 C   0  0  0  0  0  0  0  0  0  0  0  0
   -0.3010   -0.9650   -0.2270 N   0  0  0  0  0  0  0  0  0  0  0  0
    4.1820    2.3830   -0.5850 C   0  0  0  0  0  0  0  0  0  0  0  0
   -4.9990   -0.0750   -0.0780 O   0  0  0  0  0  0  0  0  0  0  0  0
    3.6950    1.0200   -0.1670 C   0  0  0  0  0  0  0  0  0  0  0  0
   -4.0360    0.6190    0.1690 C   0  0  0  0  0  0  0  0  0  0  0  0
   -4.1880    2.1150    0.2610 C   0  0  0  0  0  0  0  0  0  0  0  0
    4.3800    0.3070    0.7990 C   0  0  0  0  0  0  0  0  0  0  0  0
    3.9330   -0.9440    1.1820 C   0  0  0  0  0  0  0  0  0  0  0  0
   -1.6480    0.8740    0.6680 C   0  0  0  0  0  0  0  0  0  0  0  0
    2.4500   -2.4580    0.9000 H   0  0  0  0  0  0  0  0  0  0  0  0
    0.7870   -0.9830   -2.0240 H   0  0  0  0  0  0  0  0  0  0  0  0
    0.9640   -2.4430   -1.0210 H   0  0  0  0  0  0  0  0  0  0  0  0
   -1.2780   -2.7740   -0.6620 H   0  0  0  0  0  0  0  0  0  0  0  0
   -1.7540   -1.3960   -1.6830 H   0  0  0  0  0  0  0  0  0  0  0  0
   -2.4380   -1.8090    1.2650 H   0  0  0  0  0  0  0  0  0  0  0  0
   -3.5690   -1.8600   -0.1130 H   0  0  0  0  0  0  0  0  0  0  0  0
    0.3950    1.0050   -0.0120 H   0  0  0  0  0  0  0  0  0  0  0  0
   -0.7980    0.7650   -1.3110 H   0  0  0  0  0  0  0  0  0  0  0  0
    2.0280    1.0380   -1.5050 H   0  0  0  0  0  0  0  0  0  0  0  0
    3.7190    3.1430    0.0450 H   0  0  0  0  0  0  0  0  0  0  0  0
    5.2660    2.4320   -0.4740 H   0  0  0  0  0  0  0  0  0  0  0  0
    3.9150    2.5620   -1.6260 H   0  0  0  0  0  0  0  0  0  0  0  0
   -3.5520    2.5920   -0.4840 H   0  0  0  0  0  0  0  0  0  0  0  0
   -5.2280    2.3860    0.0780 H   0  0  0  0  0  0  0  0  0  0  0  0
   -3.8950    2.4500    1.2570 H   0  0  0  0  0  0  0  0  0  0  0  0
    5.2640    0.7270    1.2550 H   0  0  0  0  0  0  0  0  0  0  0  0
    4.4650   -1.4990    1.9400 H   0  0  0  0  0  0  0  0  0  0  0  0
   -1.8930    1.9280    0.5390 H   0  0  0  0  0  0  0  0  0  0  0  0
   -1.3320    0.6910    1.6950 H   0  0  0  0  0  0  0  0  0  0  0  0
 10 12  1  0  0  0  0
 12 15  2  0  0  0  0
 15 16  1  0  0  0  0
  2 16  2  0  0  0  0
  2  3  1  0  0  0  0
  3  4  1  0  0  0  0
  4  9  1  0  0  0  0
  5  9  1  0  0  0  0
  5  6  1  0  0  0  0
  1  6  1  0  0  0  0
  1 17  1  0  0  0  0
  7 17  1  0  0  0  0
  7  9  1  0  0  0  0
  1 13  1  0  0  0  0
 11 13  2  0  0  0  0
 13 14  1  0  0  0  0
  3  8  2  0  0  0  0
  8 12  1  0  0  0  0
  2 18  1  0  0  0  0
  4 19  1  0  0  0  0
  4 20  1  0  0  0  0
  5 21  1  0  0  0  0
  5 22  1  0  0  0  0
  6 23  1  0  0  0  0
  6 24  1  0  0  0  0
  7 25  1  0  0  0  0
  7 26  1  0  0  0  0
  8 27  1  0  0  0  0
 10 28  1  0  0  0  0
 10 29  1  0  0  0  0
 10 30  1  0  0  0  0
 14 31  1  0  0  0  0
 14 32  1  0  0  0  0
 14 33  1  0  0  0  0
 15 34  1  0  0  0  0
 16 35  1  0  0  0  0
 17 36  1  0  0  0  0
 17 37  1  0  0  0  0
M  END
> <OPENEYE_ISO_SMILES>
Cc1cccc(c1)CN2CCN(CC2)C(=O)C

> <OPENEYE_INCHI>
InChI=1S/C14H20N2O/c1-12-4-3-5-14(10-12)11-15-6-8-16(9-7-15)13(2)17/h3-5,10H,6-9,11H2,1-2H3

> <OPENEYE_INCHIKEY>
CMCBVCKQOHOWJO-UHFFFAOYSA-N

> <FORMULA>
C14H20N2O

$$$$
