@<TRIPOS>MOLECULE
/home/pku/3cl/gett_pdb/5RH2/5RH2_mol2/ligand/5RH2_UH7.pdb
 18 19 0 0 0
SMALL
GASTEIGER

@<TRIPOS>ATOM
      1  N1         7.9340   -0.6100   20.7090 N.am  1001  UH71001    -0.1777
      2  C4         7.7050   -0.0500   18.3490 C.ar  1001  UH71001     0.1151
      3  C5         7.2370    0.0220   19.6600 C.ar  1001  UH71001     0.0885
      4  C6         9.1160   -0.1980   21.2060 C.2   1001  UH71001     0.2500
      5  C7         9.6120   -0.9970   22.3960 C.3   1001  UH71001     0.1135
      6  C8        11.0940   -0.7980   22.5990 C.ar  1001  UH71001    -0.0122
      7  C10       12.9160    0.3630   23.6720 C.ar  1001  UH71001     0.0006
      8  C13       12.0020   -1.3770   21.7140 C.ar  1001  UH71001     0.0076
      9 CL         14.4770   -1.8660   20.7550 Cl    1001  UH71001    -0.0823
     10  C12       13.3480   -1.0740   21.8210 C.ar  1001  UH71001     0.0574
     11  C11       13.8180   -0.1880   22.7710 C.ar  1001  UH71001     0.0114
     12  C9        11.5690    0.0490   23.5920 C.ar  1001  UH71001    -0.0037
     13  O          9.7380    0.7620   20.7610 O.2   1001  UH71001    -0.2726
     14  C1         6.1110    0.8180   19.9400 C.ar  1001  UH71001    -0.0034
     15  C          5.5290    0.9260   21.3250 C.3   1001  UH71001     0.0325
     16  N          7.1490    0.6230   17.3360 N.ar  1001  UH71001    -0.2410
     17  C3         6.0830    1.3840   17.6130 C.ar  1001  UH71001     0.0987
     18  C2         5.5410    1.5100   18.8760 C.ar  1001  UH71001     0.0177
@<TRIPOS>BOND
     1    16    17   ar
     2    16     2   ar
     3    17    18   ar
     4     2     3   ar
     5    18    14   ar
     6     3    14   ar
     7     3     1    1
     8    14    15    1
     9     1     4   am
    10     9    10    1
    11    13     4    2
    12     4     5    1
    13     8    10   ar
    14     8     6   ar
    15    10    11   ar
    16     5     6    1
    17     6    12   ar
    18    11     7   ar
    19    12     7   ar
