@<TRIPOS>MOLECULE
/home/pku/3cl/gett_pdb/5RU6/5RU6_mol2/ligand/5RU6_2UP.pdb
 23 24 0 0 0
SMALL
GASTEIGER

@<TRIPOS>ATOM
      1  CAI      -16.8910   12.8720   -2.1100 C.ar  201  2UP201     -0.0392
      2  CAM      -17.1110   13.8740   -1.1260 C.ar  201  2UP201     -0.0171
      3  CAG      -17.2640   13.5530    0.2450 C.ar  201  2UP201     -0.0540
      4  CAD      -17.4700   14.5590    1.1830 C.ar  201  2UP201     -0.0612
      5  CAC      -17.5340   15.9270    0.8080 C.ar  201  2UP201     -0.0612
      6  CAF      -17.4080   16.2470   -0.5370 C.ar  201  2UP201     -0.0540
      7  CAL      -17.2120   15.2150   -1.5060 C.ar  201  2UP201     -0.0178
      8  CAH      -17.0800   15.5800   -2.8800 C.ar  201  2UP201     -0.0532
      9  CAE      -16.8610   14.6490   -3.8320 C.ar  201  2UP201     -0.0463
     10  CAK      -16.7810   13.2660   -3.4620 C.ar  201  2UP201      0.0653
     11  CAJ      -16.5440   12.2520   -4.6500 C.2   201  2UP201      0.3081
     12  NAB      -15.2960   12.2420   -5.3500 N.pl3 201  2UP201     -0.2466
     13  NAA      -17.5030   11.4410   -4.9980 N.2   201  2UP201     -0.0994
     14  H1       -16.8570   11.9730   -1.8730 H     201  2UP201      0.0632
     15  H2       -17.2070   12.6670    0.5230 H     201  2UP201      0.0624
     16  H3       -17.5580   14.3640    2.0720 H     201  2UP201      0.0618
     17  H4       -17.6360   16.5890    1.4480 H     201  2UP201      0.0618
     18  H5       -17.4510   17.1360   -0.8080 H     201  2UP201      0.0624
     19  H6       -17.1150   16.4780   -3.1180 H     201  2UP201      0.0624
     20  H7       -16.7800   14.9010   -4.7240 H     201  2UP201      0.0626
     21  H8       -14.6680   12.7820   -5.1170 H     201  2UP201      0.2884
     22  H10      -18.2780   11.4540   -4.5600 H     201  2UP201      0.3633
     23 H012      -15.1710   11.6900   -5.9980 H     201  2UP201      0.2884
@<TRIPOS>BOND
     1    23    12    1
     2    12    21    1
     3    12    11    1
     4    13    11    2
     5    13    22    1
     6    20     9    1
     7    11    10    1
     8     9    10   ar
     9     9     8   ar
    10    10     1   ar
    11    19     8    1
    12     8     7   ar
    13     1    14    1
    14     1     2   ar
    15     7     2   ar
    16     7     6   ar
    17     2     3   ar
    18    18     6    1
    19     6     5   ar
    20     3    15    1
    21     3     4   ar
    22     5     4   ar
    23     5    17    1
    24     4    16    1
