@<TRIPOS>MOLECULE
/home/pku/3cl/gett_pdb/5SR8/5SR8_mol2/ligand/5SR8_R0A.pdb
 45 49 0 0 0
SMALL
GASTEIGER

@<TRIPOS>ATOM
      1  C18      -45.1310  -26.2180   -0.1550 C.3   201  R0A201     -0.0477
      2  N1       -45.1370  -28.9400    2.7420 N.pl3 201  R0A201     -0.3093
      3  C16      -44.4830  -28.1350    0.5140 C.3   201  R0A201      0.0856
      4  C17      -43.8260  -26.9560   -0.2540 C.3   201  R0A201     -0.0222
      5  C15      -44.1320  -28.0820    2.0420 C.3   201  R0A201      0.0427
      6  C14      -44.3130  -29.1350    6.2960 C.ar  201  R0A201      0.1204
      7  C13      -46.5070  -29.1530    6.2410 C.ar  201  R0A201      0.1442
      8  O2       -44.4820  -33.0040    2.7130 O.co2 201  R0A201     -0.2463
      9  C12      -48.6750  -29.0020    3.3070 C.ar  201  R0A201     -0.0491
     10  C11      -50.0700  -29.0140    3.3960 C.ar  201  R0A201     -0.0257
     11  O3       -43.4250  -31.3960    3.7370 O.co2 201  R0A201     -0.2463
     12  C10      -50.7080  -29.1020    4.6300 C.ar  201  R0A201      0.1254
     13  C9       -49.9630  -29.1620    5.7820 C.ar  201  R0A201     -0.0025
     14  C8       -48.5990  -29.1440    5.7190 C.ar  201  R0A201      0.0515
     15  C7       -47.9180  -29.0640    4.4800 C.ar  201  R0A201      0.0124
     16  C6       -46.5120  -29.0700    4.8420 C.ar  201  R0A201      0.0663
     17  C5       -45.2490  -29.0150    4.2210 C.ar  201  R0A201      0.1345
     18  C4       -45.8090  -29.9600    1.9250 C.3   201  R0A201      0.0404
     19  C3       -44.9090  -30.4640    0.8040 C.3   201  R0A201      0.0853
     20  C19      -45.8170  -27.5520   -0.0150 C.3   201  R0A201     -0.0222
     21  C2       -43.6430  -31.2030    1.3250 C.3   201  R0A201      0.0769
     22  C1       -43.8660  -31.9070    2.6720 C.2   201  R0A201      0.3585
     23  O1       -44.4610  -29.4260    0.0020 O.3   201  R0A201     -0.3665
     24  F1       -52.0700  -29.1220    4.6970 F     201  R0A201     -0.2054
     25  N2       -47.7180  -29.1900    6.6520 N.ar  201  R0A201     -0.3389
     26  N3       -45.4260  -29.1910    7.0150 N.ar  201  R0A201     -0.2178
     27  N4       -44.1740  -29.0540    4.9770 N.ar  201  R0A201     -0.2200
     28  H16      -45.3740  -25.7640   -0.9700 H     201  R0A201      0.0267
     29  H15      -45.1920  -25.6750    0.6460 H     201  R0A201      0.0267
     30  H14      -43.5940  -27.1940   -1.1700 H     201  R0A201      0.0293
     31  H13      -43.1090  -26.5380    0.2400 H     201  R0A201      0.0293
     32  H12      -43.2400  -28.4260    2.1950 H     201  R0A201      0.0492
     33  H11      -44.1990  -27.1670    2.3630 H     201  R0A201      0.0492
     34  H10      -43.5320  -29.1510    6.7960 H     201  R0A201      0.1048
     35  H8       -48.2610  -28.9450    2.4680 H     201  R0A201      0.0625
     36  H7       -50.5840  -28.9810    2.6200 H     201  R0A201      0.0646
     37  H6       -50.3770  -29.2210    6.6080 H     201  R0A201      0.0667
     38  H4       -46.0940  -30.6940    2.4820 H     201  R0A201      0.0490
     39  H5       -46.5930  -29.5610    1.5260 H     201  R0A201      0.0490
     40  H1       -45.4250  -31.0610    0.2380 H     201  R0A201      0.0617
     41  H17      -46.5150  -27.5510    0.6600 H     201  R0A201      0.0293
     42  H18      -46.0810  -27.9430   -0.8610 H     201  R0A201      0.0293
     43  H3       -43.3850  -31.8720    0.6700 H     201  R0A201      0.0405
     44  H2       -42.9210  -30.5590    1.4200 H     201  R0A201      0.0405
     45  H9       -47.9380  -29.2470    7.5190 H     201  R0A201      0.1673
@<TRIPOS>BOND
     1    30     4    1
     2    28     1    1
     3    42    20    1
     4     4     1    1
     5     4    31    1
     6     4     3    1
     7     1    20    1
     8     1    29    1
     9    20     3    1
    10    20    41    1
    11    23     3    1
    12    23    19    1
    13    40    19    1
    14     3     5    1
    15    43    21    1
    16    19    21    1
    17    19    18    1
    18    21    44    1
    19    21    22    1
    20    39    18    1
    21    18    38    1
    22    18     2    1
    23     5    32    1
    24     5    33    1
    25     5     2    1
    26    35     9    1
    27    36    10    1
    28    22     8   ar
    29    22    11   ar
    30     2    17    1
    31     9    10   ar
    32     9    15   ar
    33    10    12   ar
    34    17    16   ar
    35    17    27   ar
    36    15    16   ar
    37    15    14   ar
    38    12    24    1
    39    12    13   ar
    40    16     7   ar
    41    27     6   ar
    42    14    13   ar
    43    14    25   ar
    44    13    37    1
    45     7    25   ar
    46     7    26   ar
    47     6    34    1
    48     6    26   ar
    49    25    45    1
