V2M
  -OEChem-02242320043D

 68 70  0     1  0  0  0  0  0999 V2000
    8.5610    1.8330    0.2370 C   0  0  0  0  0  0  0  0  0  0  0  0
    7.1670    1.6170    0.0050 O   0  0  0  0  0  0  0  0  0  0  0  0
    6.6500    0.4310    0.4150 C   0  0  0  0  0  0  0  0  0  0  0  0
    7.4580   -0.5030    1.0310 C   0  0  0  0  0  0  0  0  0  0  0  0
    6.9350   -1.7170    1.4520 C   0  0  0  0  0  0  0  0  0  0  0  0
    5.6020   -2.0120    1.2630 C   0  0  0  0  0  0  0  0  0  0  0  0
    4.7650   -1.0890    0.6440 C   0  0  0  0  0  0  0  0  0  0  0  0
    3.4270   -1.1010    0.3250 N   0  0  0  0  0  0  0  0  0  0  0  0
    3.1060    0.0950   -0.2920 C   0  0  0  0  0  0  0  0  0  0  0  0
    4.2220    0.8680   -0.3700 C   0  0  0  0  0  0  0  0  0  0  0  0
    5.2870    0.1480    0.2190 C   0  0  0  0  0  0  0  0  0  0  0  0
    1.7740    0.4690   -0.7850 C   0  0  0  0  0  0  0  0  0  0  0  0
    1.6030    1.5510   -1.3150 O   0  0  0  0  0  0  0  0  0  0  0  0
    0.7410   -0.3860   -0.6500 N   0  0  0  0  0  0  0  0  0  0  0  0
   -0.6090    0.0290   -1.0410 C   0  0  1  0  0  0  0  0  0  0  0  0
   -0.8320   -0.2900   -2.5200 C   0  0  0  0  0  0  0  0  0  0  0  0
   -2.1870    0.2670   -2.9630 C   0  0  0  0  0  0  0  0  0  0  0  0
   -2.1500    1.7960   -2.9170 C   0  0  0  0  0  0  0  0  0  0  0  0
   -2.4850   -0.1930   -4.3920 C   0  0  0  0  0  0  0  0  0  0  0  0
   -1.6230   -0.7130   -0.2080 C   0  0  0  0  0  0  0  0  0  0  0  0
   -1.3030   -1.7270    0.3760 O   0  0  0  0  0  0  0  0  0  0  0  0
   -2.8850   -0.2500   -0.1130 N   0  0  0  0  0  0  0  0  0  0  0  0
   -3.8470   -0.9210    0.7660 C   0  0  1  0  0  0  0  0  0  0  0  0
   -4.9320    0.0720    1.1860 C   0  0  0  0  0  0  0  0  0  0  0  0
   -4.3080    1.1790    2.0380 C   0  0  2  0  0  0  0  0  0  0  0  0
   -5.3910    2.1810    2.5020 C   0  0  0  0  0  0  0  0  0  0  0  0
   -5.3080    3.2640    1.4040 C   0  0  0  0  0  0  0  0  0  0  0  0
   -3.9440    3.1790    0.8720 N   0  0  0  0  0  0  0  0  0  0  0  0
   -3.3600    2.0160    1.2080 C   0  0  0  0  0  0  0  0  0  0  0  0
   -2.2370    1.6860    0.8920 O   0  0  0  0  0  0  0  0  0  0  0  0
   -4.4890   -2.0920    0.0190 C   0  0  2  0  0  0  0  0  0  0  0  0
   -5.4270   -2.7460    0.8770 O   0  0  0  0  0  0  0  0  0  0  0  0
   -3.4030   -3.0860   -0.4010 C   0  0  0  0  0  0  0  0  0  0  0  0
   -2.6520   -3.4840    0.7480 O   0  0  0  0  0  0  0  0  0  0  0  0
    8.7630    1.7790    1.3070 H   0  0  0  0  0  0  0  0  0  0  0  0
    9.1380    1.0670   -0.2800 H   0  0  0  0  0  0  0  0  0  0  0  0
    8.8440    2.8160   -0.1370 H   0  0  0  0  0  0  0  0  0  0  0  0
    8.5050   -0.2880    1.1870 H   0  0  0  0  0  0  0  0  0  0  0  0
    7.5780   -2.4390    1.9320 H   0  0  0  0  0  0  0  0  0  0  0  0
    5.2070   -2.9610    1.5950 H   0  0  0  0  0  0  0  0  0  0  0  0
    2.8100   -1.8280    0.5030 H   0  0  0  0  0  0  0  0  0  0  0  0
    4.2850    1.8510   -0.8120 H   0  0  0  0  0  0  0  0  0  0  0  0
    0.8910   -1.2760   -0.2950 H   0  0  0  0  0  0  0  0  0  0  0  0
   -0.7210    1.1010   -0.8790 H   0  0  0  0  0  0  0  0  0  0  0  0
   -0.0410    0.1660   -3.1140 H   0  0  0  0  0  0  0  0  0  0  0  0
   -0.8190   -1.3700   -2.6660 H   0  0  0  0  0  0  0  0  0  0  0  0
   -2.9660   -0.0980   -2.2940 H   0  0  0  0  0  0  0  0  0  0  0  0
   -3.1360    2.1910   -3.1600 H   0  0  0  0  0  0  0  0  0  0  0  0
   -1.8640    2.1220   -1.9160 H   0  0  0  0  0  0  0  0  0  0  0  0
   -1.4220    2.1640   -3.6400 H   0  0  0  0  0  0  0  0  0  0  0  0
   -2.5120   -1.2820   -4.4250 H   0  0  0  0  0  0  0  0  0  0  0  0
   -3.4500    0.2040   -4.7070 H   0  0  0  0  0  0  0  0  0  0  0  0
   -1.7060    0.1720   -5.0610 H   0  0  0  0  0  0  0  0  0  0  0  0
   -3.1570    0.5260   -0.6260 H   0  0  0  0  0  0  0  0  0  0  0  0
   -3.3320   -1.2930    1.6510 H   0  0  0  0  0  0  0  0  0  0  0  0
   -5.3870    0.5110    0.2980 H   0  0  0  0  0  0  0  0  0  0  0  0
   -5.6950   -0.4470    1.7660 H   0  0  0  0  0  0  0  0  0  0  0  0
   -3.7880    0.7520    2.8960 H   0  0  0  0  0  0  0  0  0  0  0  0
   -6.3750    1.7120    2.5150 H   0  0  0  0  0  0  0  0  0  0  0  0
   -5.1460    2.5960    3.4790 H   0  0  0  0  0  0  0  0  0  0  0  0
   -6.0340    3.0600    0.6170 H   0  0  0  0  0  0  0  0  0  0  0  0
   -5.4850    4.2510    1.8340 H   0  0  0  0  0  0  0  0  0  0  0  0
   -3.5170    3.8730    0.3450 H   0  0  0  0  0  0  0  0  0  0  0  0
   -5.0030   -1.7210   -0.8660 H   0  0  0  0  0  0  0  0  0  0  0  0
   -6.1440   -2.1750    1.1820 H   0  0  0  0  0  0  0  0  0  0  0  0
   -3.8680   -3.9620   -0.8530 H   0  0  0  0  0  0  0  0  0  0  0  0
   -2.7380   -2.6130   -1.1240 H   0  0  0  0  0  0  0  0  0  0  0  0
   -1.9450   -4.1150    0.5550 H   0  0  0  0  0  0  0  0  0  0  0  0
 33 34  1  0  0  0  0
 31 33  1  0  0  0  0
 31 32  1  0  0  0  0
 17 19  1  0  0  0  0
 23 31  1  0  0  0  0
 20 21  2  0  0  0  0
 16 17  1  0  0  0  0
 15 16  1  0  0  0  0
 17 18  1  0  0  0  0
 22 23  1  0  0  0  0
 23 24  1  0  0  0  0
 20 22  1  0  0  0  0
 15 20  1  0  0  0  0
  1  2  1  0  0  0  0
 14 15  1  0  0  0  0
 26 27  1  0  0  0  0
 25 26  1  0  0  0  0
  2  3  1  0  0  0  0
 12 14  1  0  0  0  0
 24 25  1  0  0  0  0
 10 11  1  0  0  0  0
  9 10  2  0  0  0  0
 27 28  1  0  0  0  0
 25 29  1  0  0  0  0
  3 11  2  0  0  0  0
  3  4  1  0  0  0  0
  9 12  1  0  0  0  0
 12 13  2  0  0  0  0
  7 11  1  0  0  0  0
  8  9  1  0  0  0  0
  4  5  2  0  0  0  0
 28 29  1  0  0  0  0
 29 30  2  0  0  0  0
  7  8  1  0  0  0  0
  6  7  2  0  0  0  0
  5  6  1  0  0  0  0
  1 35  1  0  0  0  0
  1 36  1  0  0  0  0
  1 37  1  0  0  0  0
  4 38  1  0  0  0  0
  5 39  1  0  0  0  0
  6 40  1  0  0  0  0
  8 41  1  0  0  0  0
 10 42  1  0  0  0  0
 14 43  1  0  0  0  0
 15 44  1  0  0  0  0
 16 45  1  0  0  0  0
 16 46  1  0  0  0  0
 17 47  1  0  0  0  0
 18 48  1  0  0  0  0
 18 49  1  0  0  0  0
 18 50  1  0  0  0  0
 19 51  1  0  0  0  0
 19 52  1  0  0  0  0
 19 53  1  0  0  0  0
 22 54  1  0  0  0  0
 23 55  1  0  0  0  0
 24 56  1  0  0  0  0
 24 57  1  0  0  0  0
 25 58  1  0  0  0  0
 26 59  1  0  0  0  0
 26 60  1  0  0  0  0
 27 61  1  0  0  0  0
 27 62  1  0  0  0  0
 28 63  1  0  0  0  0
 31 64  1  0  0  0  0
 32 65  1  0  0  0  0
 33 66  1  0  0  0  0
 33 67  1  0  0  0  0
 34 68  1  0  0  0  0
M  END
> <OPENEYE_ISO_SMILES>
CC(C)C[C@@H](C(=O)N[C@@H](C[C@@H]1CCNC1=O)[C@@H](CO)O)NC(=O)c2cc3c([nH]2)cccc3OC

> <OPENEYE_INCHI>
InChI=1S/C24H34N4O6/c1-13(2)9-18(23(32)27-17(20(30)12-29)10-14-7-8-25-22(14)31)28-24(33)19-11-15-16(26-19)5-4-6-21(15)34-3/h4-6,11,13-14,17-18,20,26,29-30H,7-10,12H2,1-3H3,(H,25,31)(H,27,32)(H,28,33)/t14-,17-,18-,20+/m0/s1

> <OPENEYE_INCHIKEY>
FDQSUXUTXIGUIA-PRIDNEQBSA-N

> <FORMULA>
C24H34N4O6

$$$$
