@<TRIPOS>MOLECULE
/home/pku/3cl/gett_pdb/5RTA/5RTA_mol2/ligand/5RTA_Q6T.pdb
 17 18 0 0 0
SMALL
GASTEIGER

@<TRIPOS>ATOM
      1  OAA      -43.6580  -29.5460    2.2460 O.co2 201  Q6T201     -0.5445
      2  C10      -44.8850  -29.6150    2.1590 C.2   201  Q6T201      0.0753
      3  OAB      -45.4110  -29.9500    1.0760 O.co2 201  Q6T201     -0.5445
      4  CAD      -45.7410  -29.3040    3.3960 C.ar  201  Q6T201      0.0428
      5  CAK      -45.2030  -29.4420    4.6830 C.ar  201  Q6T201      0.1750
      6  CAL      -45.9640  -29.1430    5.7740 C.ar  201  Q6T201      0.1669
      7  OAH      -45.2120  -29.3970    6.9270 O.3   201  Q6T201     -0.4526
      8  CAF      -43.8870  -29.5190    6.4870 C.3   201  Q6T201      0.2333
      9  OAG      -43.9330  -29.8500    5.1410 O.3   201  Q6T201     -0.4519
     10  CAE      -47.2810  -28.7230    5.6300 C.ar  201  Q6T201     -0.0161
     11  CAJ      -47.8160  -28.5930    4.3730 C.ar  201  Q6T201     -0.0575
     12  CAC      -47.0460  -28.8850    3.2650 C.ar  201  Q6T201     -0.0492
     13  HAJ      -48.6930  -28.3030    4.2680 H     201  Q6T201      0.0619
     14  HAE      -47.7990  -28.5400    6.3810 H     201  Q6T201      0.0655
     15  HAC      -47.4090  -28.7780    2.4150 H     201  Q6T201      0.0625
     16 HAF1      -43.4520  -30.2340    6.9770 H     201  Q6T201      0.1166
     17 HAF2      -43.4360  -28.6670    6.5910 H     201  Q6T201      0.1166
@<TRIPOS>UNITY_ATOM_ATTR
1 1
charge -1
@<TRIPOS>BOND
     1     3     2   ar
     2     2     1   ar
     3     2     4    1
     4    15    12    1
     5    12     4   ar
     6    12    11   ar
     7     4     5   ar
     8    13    11    1
     9    11    10   ar
    10     5     9    1
    11     5     6   ar
    12     9     8    1
    13    10     6   ar
    14    10    14    1
    15     6     7    1
    16     8    17    1
    17     8     7    1
    18     8    16    1
