@<TRIPOS>MOLECULE
/home/pku/3cl/gett_pdb/5RTY/5RTY_mol2/ligand/5RTY_HBD.pdb
 17 17 0 0 0
SMALL
GASTEIGER

@<TRIPOS>ATOM
      1  C1       -49.6310  -29.2410    4.7300 C.ar  201  HBD201      0.0367
      2  C2       -48.3360  -29.4390    5.1570 C.ar  201  HBD201     -0.0462
      3  C3       -47.2660  -29.4080    4.3000 C.ar  201  HBD201     -0.0195
      4  C4       -47.5000  -29.1690    2.9550 C.ar  201  HBD201      0.1169
      5  C5       -48.7940  -28.9930    2.4920 C.ar  201  HBD201     -0.0195
      6  C6       -49.8660  -29.0110    3.3940 C.ar  201  HBD201     -0.0462
      7  C1'      -50.7560  -29.3210    5.7720 C.2   201  HBD201      0.2415
      8  O1'      -51.8660  -29.5330    5.4610 O.2   201  HBD201     -0.2704
      9  N1'      -50.4590  -29.1570    7.1700 N.am  201  HBD201     -0.3253
     10  O4       -46.4200  -29.1240    2.0650 O.3   201  HBD201     -0.5068
     11  H2       -48.1840  -29.6170    6.0570 H     201  HBD201      0.0626
     12  H3       -46.4020  -29.5510    4.6140 H     201  HBD201      0.0654
     13  H5       -48.8830  -28.7650    1.5940 H     201  HBD201      0.0654
     14  H6       -50.7390  -28.8610    3.1070 H     201  HBD201      0.0626
     15 HN'1      -51.0910  -29.2040    7.7520 H     201  HBD201      0.1453
     16 HN'2      -49.6520  -29.0040    7.4240 H     201  HBD201      0.1453
     17  HO4      -45.9660  -29.8390    2.1340 H     201  HBD201      0.2921
@<TRIPOS>BOND
     1    13     5    1
     2    10    17    1
     3    10     4    1
     4     5     4   ar
     5     5     6   ar
     6     4     3   ar
     7    14     6    1
     8     6     1   ar
     9     3    12    1
    10     3     2   ar
    11     1     2   ar
    12     1     7    1
    13     2    11    1
    14     8     7    2
    15     7     9   am
    16     9    16    1
    17     9    15    1
