@<TRIPOS>MOLECULE
/home/pku/3cl/gett_pdb/5RUC/5RUC_mol2/ligand/5RUC_NCA.pdb
 30 22 0 0 0
SMALL
GASTEIGER

@<TRIPOS>ATOM
      1  N1       -51.3680  -29.3640    4.4580 N.3   201  NCA201      0.0415
      2  N1       -47.3800  -29.0830    6.1780 N.3   201  NCA201     -0.1516
      3  C2       -50.0650  -29.2220    4.3360 C.3   201  NCA201     -0.0309
      4  C2       -48.6630  -29.1450    6.4540 C.2   201  NCA201     -0.0528
      5  C3       -49.3310  -29.1980    5.4630 C.2   201  NCA201     -0.0096
      6  C3       -49.5930  -29.2380    5.4310 C.3   201  NCA201      0.0000
      7  C4       -49.9210  -29.3710    6.6550 C.3   201  NCA201     -0.0309
      8  C4       -49.1970  -29.2840    4.1040 C.3   201  NCA201     -0.0309
      9  C5       -51.2610  -29.5500    6.7760 C.3   201  NCA201      0.0023
     10  C5       -47.8260  -29.1870    3.8960 C.3   201  NCA201      0.1164
     11  C6       -51.9470  -29.5220    5.5860 C.3   201  NCA201      0.1195
     12  C6       -46.9590  -29.0930    4.9470 C.3   201  NCA201      0.1123
     13  C7       -47.8060  -29.1000    5.4380 C.3   201  NCA201      0.1324
     14  C7       -51.0370  -29.4030    5.7700 C.3   201  NCA201      0.0274
     15  O7       -47.2440  -29.1180    4.4300 O.3   201  NCA201     -0.3633
     16  O7       -51.7890  -29.4140    4.9120 O.3   201  NCA201     -0.2558
     17  N7       -47.1260  -29.0950    6.6890 N.3   201  NCA201     -0.2523
     18  N7       -51.3400  -29.6280    7.1410 N.3   201  NCA201     -0.2731
     19  H2       -49.6580  -29.1050    3.5150 H     201  NCA201      0.0309
     20  H2       -48.9430  -29.1590    7.3400 H     201  NCA201      0.0624
     21  H4       -49.3970  -29.3950    7.4220 H     201  NCA201      0.0309
     22  H4       -49.8250  -29.3340    3.4510 H     201  NCA201      0.0309
     23  H5       -51.6840  -29.6460    7.5990 H     201  NCA201      0.1366
     24  H5       -47.4940  -29.1810    3.0270 H     201  NCA201      0.0650
     25  H6       -52.8730  -29.6100    5.6030 H     201  NCA201      0.0650
     26  H6       -46.0480  -29.0160    4.7780 H     201  NCA201      0.0644
     27 HN71      -47.5650  -29.1000    7.4270 H     201  NCA201      0.1384
     28 HN71      -50.7190  -29.6250    7.7340 H     201  NCA201      0.1366
     29 HN72      -46.2670  -29.0500    6.7060 H     201  NCA201      0.1384
     30 HN72      -52.1580  -29.7370    7.3830 H     201  NCA201      0.0000
@<TRIPOS>BOND
     1    24    10    1
     2    22     3    1
     3    19     8    1
     4    10    15    1
     5     8     3    1
     6    15    12    1
     7     1    16    1
     8    26    12    1
     9    16    11    1
    10    12    13    1
    11    13     2    1
    12     5     4    2
    13    11    25    1
    14    11    14    1
    15    14     9    1
    16     2    17    1
    17     4    20    1
    18     7    21    1
    19    17    29    1
    20    17    27    1
    21    18    23    1
    22    18    28    1
