O6K
  -OEChem-02242320033D

 84 87  0     1  0  0  0  0  0999 V2000
    4.9740    0.5380    0.5300 O   0  0  0  0  0  0  0  0  0  0  0  0
    5.7060   -0.4040    0.7580 C   0  0  0  0  0  0  0  0  0  0  0  0
    7.0420   -0.2340    0.7610 O   0  0  0  0  0  0  0  0  0  0  0  0
    7.5370    1.1030    0.4830 C   0  0  0  0  0  0  0  0  0  0  0  0
    6.9960    2.0760    1.5330 C   0  0  0  0  0  0  0  0  0  0  0  0
    9.0660    1.1010    0.5300 C   0  0  0  0  0  0  0  0  0  0  0  0
    7.0690    1.5410   -0.9060 C   0  0  0  0  0  0  0  0  0  0  0  0
    5.1810   -1.6190    1.0140 N   0  0  0  0  0  0  0  0  0  0  0  0
    3.7920   -1.7730    1.1230 C   0  0  0  0  0  0  0  0  0  0  0  0
    2.9500   -1.4410    0.0400 C   0  0  0  0  0  0  0  0  0  0  0  0
    3.4290   -1.0170   -0.9990 O   0  0  0  0  0  0  0  0  0  0  0  0
    3.2370   -2.2530    2.2770 C   0  0  0  0  0  0  0  0  0  0  0  0
    1.8450   -2.3980    2.3590 C   0  0  0  0  0  0  0  0  0  0  0  0
    1.0660   -2.0660    1.3040 C   0  0  0  0  0  0  0  0  0  0  0  0
    1.6170   -1.5940    0.1540 N   0  0  0  0  0  0  0  0  0  0  0  0
    0.7490   -1.2470   -0.9750 C   0  0  1  0  0  0  0  0  0  0  0  0
   -0.0350   -2.4860   -1.4140 C   0  0  0  0  0  0  0  0  0  0  0  0
    0.9350   -3.5370   -1.9570 C   0  0  0  0  0  0  0  0  0  0  0  0
    0.3560   -4.9000   -2.3420 C   0  0  0  0  0  0  0  0  0  0  0  0
    0.8040   -3.9240   -3.4320 C   0  0  0  0  0  0  0  0  0  0  0  0
   -0.2130   -0.1660   -0.5550 C   0  0  0  0  0  0  0  0  0  0  0  0
   -0.1780    0.2710    0.5760 O   0  0  0  0  0  0  0  0  0  0  0  0
   -1.1140    0.3140   -1.4350 N   0  0  0  0  0  0  0  0  0  0  0  0
   -1.9750    1.4380   -1.0620 C   0  0  1  0  0  0  0  0  0  0  0  0
   -1.2030    2.7490   -1.2240 C   0  0  0  0  0  0  0  0  0  0  0  0
   -2.0740    3.9160   -0.7550 C   0  0  1  0  0  0  0  0  0  0  0  0
   -2.3420    3.8120    0.7300 C   0  0  0  0  0  0  0  0  0  0  0  0
   -3.1470    3.0620    1.2400 O   0  0  0  0  0  0  0  0  0  0  0  0
   -1.5590    4.6730    1.4030 N   0  0  0  0  0  0  0  0  0  0  0  0
   -0.6900    5.4270    0.4910 C   0  0  0  0  0  0  0  0  0  0  0  0
   -1.3160    5.2540   -0.9140 C   0  0  0  0  0  0  0  0  0  0  0  0
   -3.2080    1.4580   -1.9680 C   0  0  1  0  0  0  0  0  0  0  0  0
   -2.7980    1.6040   -3.3290 O   0  0  0  0  0  0  0  0  0  0  0  0
   -3.9700    0.1670   -1.8080 C   0  0  0  0  0  0  0  0  0  0  0  0
   -4.0660   -0.6000   -2.7430 O   0  0  0  0  0  0  0  0  0  0  0  0
   -4.5440   -0.1350   -0.6270 N   0  0  0  0  0  0  0  0  0  0  0  0
   -5.2840   -1.3900   -0.4720 C   0  0  0  0  0  0  0  0  0  0  0  0
   -5.8220   -1.4850    0.9330 C   0  0  0  0  0  0  0  0  0  0  0  0
   -7.0740   -0.9800    1.2290 C   0  0  0  0  0  0  0  0  0  0  0  0
   -7.5670   -1.0670    2.5170 C   0  0  0  0  0  0  0  0  0  0  0  0
   -6.8090   -1.6600    3.5090 C   0  0  0  0  0  0  0  0  0  0  0  0
   -5.5570   -2.1650    3.2130 C   0  0  0  0  0  0  0  0  0  0  0  0
   -5.0660   -2.0840    1.9230 C   0  0  0  0  0  0  0  0  0  0  0  0
    7.3290    1.7640    2.5230 H   0  0  0  0  0  0  0  0  0  0  0  0
    7.3670    3.0790    1.3240 H   0  0  0  0  0  0  0  0  0  0  0  0
    5.9060    2.0770    1.5000 H   0  0  0  0  0  0  0  0  0  0  0  0
    9.4510    0.4080   -0.2180 H   0  0  0  0  0  0  0  0  0  0  0  0
    9.4370    2.1040    0.3210 H   0  0  0  0  0  0  0  0  0  0  0  0
    9.3990    0.7890    1.5200 H   0  0  0  0  0  0  0  0  0  0  0  0
    5.9800    1.5430   -0.9400 H   0  0  0  0  0  0  0  0  0  0  0  0
    7.4410    2.5440   -1.1150 H   0  0  0  0  0  0  0  0  0  0  0  0
    7.4550    0.8480   -1.6540 H   0  0  0  0  0  0  0  0  0  0  0  0
    5.7650   -2.3860    1.1240 H   0  0  0  0  0  0  0  0  0  0  0  0
    3.8640   -2.5170    3.1160 H   0  0  0  0  0  0  0  0  0  0  0  0
    1.3940   -2.7760    3.2650 H   0  0  0  0  0  0  0  0  0  0  0  0
   -0.0050   -2.1820    1.3750 H   0  0  0  0  0  0  0  0  0  0  0  0
    1.3580   -0.8890   -1.8040 H   0  0  0  0  0  0  0  0  0  0  0  0
   -0.5750   -2.8960   -0.5610 H   0  0  0  0  0  0  0  0  0  0  0  0
   -0.7440   -2.2080   -2.1940 H   0  0  0  0  0  0  0  0  0  0  0  0
    1.9370   -3.5180   -1.5280 H   0  0  0  0  0  0  0  0  0  0  0  0
    0.9780   -5.7780   -2.1670 H   0  0  0  0  0  0  0  0  0  0  0  0
   -0.7150   -5.0480   -2.2080 H   0  0  0  0  0  0  0  0  0  0  0  0
    0.0270   -3.4300   -4.0150 H   0  0  0  0  0  0  0  0  0  0  0  0
    1.7200   -4.1600   -3.9730 H   0  0  0  0  0  0  0  0  0  0  0  0
   -1.1910   -0.0850   -2.3160 H   0  0  0  0  0  0  0  0  0  0  0  0
   -2.2890    1.3270   -0.0240 H   0  0  0  0  0  0  0  0  0  0  0  0
   -0.2930    2.7110   -0.6250 H   0  0  0  0  0  0  0  0  0  0  0  0
   -0.9410    2.8890   -2.2730 H   0  0  0  0  0  0  0  0  0  0  0  0
   -3.0110    3.9390   -1.3120 H   0  0  0  0  0  0  0  0  0  0  0  0
   -1.5660    4.7810    2.3660 H   0  0  0  0  0  0  0  0  0  0  0  0
   -0.6750    6.4810    0.7700 H   0  0  0  0  0  0  0  0  0  0  0  0
    0.3200    5.0180    0.5070 H   0  0  0  0  0  0  0  0  0  0  0  0
   -0.5440    5.1780   -1.6790 H   0  0  0  0  0  0  0  0  0  0  0  0
   -2.0050    6.0700   -1.1380 H   0  0  0  0  0  0  0  0  0  0  0  0
   -3.8500    2.2950   -1.6910 H   0  0  0  0  0  0  0  0  0  0  0  0
   -2.2230    0.8930   -3.6450 H   0  0  0  0  0  0  0  0  0  0  0  0
   -4.4670    0.4780    0.1200 H   0  0  0  0  0  0  0  0  0  0  0  0
   -6.1110   -1.4140   -1.1810 H   0  0  0  0  0  0  0  0  0  0  0  0
   -4.6170   -2.2310   -0.6630 H   0  0  0  0  0  0  0  0  0  0  0  0
   -7.6660   -0.5160    0.4540 H   0  0  0  0  0  0  0  0  0  0  0  0
   -8.5450   -0.6710    2.7490 H   0  0  0  0  0  0  0  0  0  0  0  0
   -7.1940   -1.7270    4.5160 H   0  0  0  0  0  0  0  0  0  0  0  0
   -4.9660   -2.6330    3.9870 H   0  0  0  0  0  0  0  0  0  0  0  0
   -4.0880   -2.4790    1.6920 H   0  0  0  0  0  0  0  0  0  0  0  0
 27 29  1  0  0  0  0
 29 30  1  0  0  0  0
 27 28  2  0  0  0  0
 26 27  1  0  0  0  0
 30 31  1  0  0  0  0
 34 35  2  0  0  0  0
 26 31  1  0  0  0  0
 25 26  1  0  0  0  0
 24 25  1  0  0  0  0
 42 43  2  0  0  0  0
 41 42  1  0  0  0  0
 38 43  1  0  0  0  0
 40 41  2  0  0  0  0
 34 36  1  0  0  0  0
 32 34  1  0  0  0  0
 37 38  1  0  0  0  0
 38 39  2  0  0  0  0
 36 37  1  0  0  0  0
 39 40  1  0  0  0  0
 24 32  1  0  0  0  0
 23 24  1  0  0  0  0
 32 33  1  0  0  0  0
  4  6  1  0  0  0  0
 21 23  1  0  0  0  0
  4  7  1  0  0  0  0
  3  4  1  0  0  0  0
  4  5  1  0  0  0  0
  2  3  1  0  0  0  0
 21 22  2  0  0  0  0
 10 11  2  0  0  0  0
 16 21  1  0  0  0  0
  2  8  1  0  0  0  0
  8  9  1  0  0  0  0
  1  2  2  0  0  0  0
  9 10  1  0  0  0  0
 10 15  1  0  0  0  0
 15 16  1  0  0  0  0
 16 17  1  0  0  0  0
  9 12  2  0  0  0  0
 14 15  1  0  0  0  0
 17 18  1  0  0  0  0
 12 13  1  0  0  0  0
 13 14  2  0  0  0  0
 18 20  1  0  0  0  0
 19 20  1  0  0  0  0
 18 19  1  0  0  0  0
  5 44  1  0  0  0  0
  5 45  1  0  0  0  0
  5 46  1  0  0  0  0
  6 47  1  0  0  0  0
  6 48  1  0  0  0  0
  6 49  1  0  0  0  0
  7 50  1  0  0  0  0
  7 51  1  0  0  0  0
  7 52  1  0  0  0  0
  8 53  1  0  0  0  0
 12 54  1  0  0  0  0
 13 55  1  0  0  0  0
 14 56  1  0  0  0  0
 16 57  1  0  0  0  0
 17 58  1  0  0  0  0
 17 59  1  0  0  0  0
 18 60  1  0  0  0  0
 19 61  1  0  0  0  0
 19 62  1  0  0  0  0
 20 63  1  0  0  0  0
 20 64  1  0  0  0  0
 23 65  1  0  0  0  0
 24 66  1  0  0  0  0
 25 67  1  0  0  0  0
 25 68  1  0  0  0  0
 26 69  1  0  0  0  0
 29 70  1  0  0  0  0
 30 71  1  0  0  0  0
 30 72  1  0  0  0  0
 31 73  1  0  0  0  0
 31 74  1  0  0  0  0
 32 75  1  0  0  0  0
 33 76  1  0  0  0  0
 36 77  1  0  0  0  0
 37 78  1  0  0  0  0
 37 79  1  0  0  0  0
 39 80  1  0  0  0  0
 40 81  1  0  0  0  0
 41 82  1  0  0  0  0
 42 83  1  0  0  0  0
 43 84  1  0  0  0  0
M  END
> <OPENEYE_ISO_SMILES>
CC(C)(C)OC(=O)Nc1cccn(c1=O)[C@@H](CC2CC2)C(=O)N[C@@H](C[C@@H]3CCNC3=O)[C@H](C(=O)NCc4ccccc4)O

> <OPENEYE_INCHI>
InChI=1S/C31H41N5O7/c1-31(2,3)43-30(42)35-22-10-7-15-36(29(22)41)24(16-19-11-12-19)27(39)34-23(17-21-13-14-32-26(21)38)25(37)28(40)33-18-20-8-5-4-6-9-20/h4-10,15,19,21,23-25,37H,11-14,16-18H2,1-3H3,(H,32,38)(H,33,40)(H,34,39)(H,35,42)/t21-,23-,24-,25+/m0/s1

> <OPENEYE_INCHIKEY>
FRACPXUHUTXLCX-BELIEFIBSA-N

> <FORMULA>
C31H41N5O7

$$$$
