TBN
  -OEChem-02242320043D

 33 35  0     1  0  0  0  0  0999 V2000
   -4.4500   -2.1210    0.9650 O   0  0  0  0  0  0  0  0  0  0  0  0
   -4.2110   -1.1820   -0.0850 C   0  0  0  0  0  0  0  0  0  0  0  0
   -3.1160   -0.2030    0.3450 C   0  0  1  0  0  0  0  0  0  0  0  0
   -1.8540   -0.8910    0.4840 O   0  0  0  0  0  0  0  0  0  0  0  0
   -0.8470    0.1410    0.3960 C   0  0  1  0  0  0  0  0  0  0  0  0
    0.4490   -0.4400    0.0350 N   0  0  0  0  0  0  0  0  0  0  0  0
    0.6220   -1.6450   -0.5940 C   0  0  0  0  0  0  0  0  0  0  0  0
    1.9310   -1.8800   -0.7760 C   0  0  0  0  0  0  0  0  0  0  0  0
    2.6470   -0.7310   -0.2250 C   0  0  0  0  0  0  0  0  0  0  0  0
    3.9970   -0.3690   -0.0950 C   0  0  0  0  0  0  0  0  0  0  0  0
    4.2860    0.7900    0.4890 N   0  0  0  0  0  0  0  0  0  0  0  0
    3.3300    1.5820    0.9410 C   0  0  0  0  0  0  0  0  0  0  0  0
    2.0530    1.2810    0.8460 N   0  0  0  0  0  0  0  0  0  0  0  0
    1.6630    0.1410    0.2770 C   0  0  0  0  0  0  0  0  0  0  0  0
    5.0010   -1.1950   -0.5670 N   0  0  0  0  0  0  0  0  0  0  0  0
   -1.3430    1.0860   -0.7210 C   0  0  2  0  0  0  0  0  0  0  0  0
   -1.0530    2.4480   -0.4000 O   0  0  0  0  0  0  0  0  0  0  0  0
   -2.8720    0.8510   -0.7570 C   0  0  2  0  0  0  0  0  0  0  0  0
   -3.5710    2.0610   -0.4570 O   0  0  0  0  0  0  0  0  0  0  0  0
   -5.1440   -2.7170    0.6540 H   0  0  0  0  0  0  0  0  0  0  0  0
   -5.1270   -0.6320   -0.2970 H   0  0  0  0  0  0  0  0  0  0  0  0
   -3.8910   -1.7140   -0.9810 H   0  0  0  0  0  0  0  0  0  0  0  0
   -3.3890    0.2830    1.2810 H   0  0  0  0  0  0  0  0  0  0  0  0
   -0.7710    0.6790    1.3410 H   0  0  0  0  0  0  0  0  0  0  0  0
   -0.1760   -2.3080   -0.8970 H   0  0  0  0  0  0  0  0  0  0  0  0
    2.3710   -2.7480   -1.2440 H   0  0  0  0  0  0  0  0  0  0  0  0
    3.6080    2.5150    1.4080 H   0  0  0  0  0  0  0  0  0  0  0  0
    5.9290   -0.9310   -0.4750 H   0  0  0  0  0  0  0  0  0  0  0  0
    4.7760   -2.0400   -0.9870 H   0  0  0  0  0  0  0  0  0  0  0  0
   -0.8930    0.8150   -1.6760 H   0  0  0  0  0  0  0  0  0  0  0  0
   -1.4390    2.9890   -1.1020 H   0  0  0  0  0  0  0  0  0  0  0  0
   -3.1770    0.4660   -1.7300 H   0  0  0  0  0  0  0  0  0  0  0  0
   -4.5130    1.8400   -0.4330 H   0  0  0  0  0  0  0  0  0  0  0  0
  1  2  1  0  0  0  0
  1 20  1  0  0  0  0
  2  3  1  0  0  0  0
  2 21  1  0  0  0  0
  2 22  1  0  0  0  0
  3  4  1  0  0  0  0
  3 18  1  0  0  0  0
  3 23  1  0  0  0  0
  4  5  1  0  0  0  0
  5  6  1  0  0  0  0
  5 16  1  0  0  0  0
  5 24  1  0  0  0  0
  6  7  1  0  0  0  0
  6 14  1  0  0  0  0
  7  8  2  0  0  0  0
  7 25  1  0  0  0  0
  8  9  1  0  0  0  0
  8 26  1  0  0  0  0
  9 10  2  0  0  0  0
  9 14  1  0  0  0  0
 10 11  1  0  0  0  0
 10 15  1  0  0  0  0
 11 12  2  0  0  0  0
 12 13  1  0  0  0  0
 12 27  1  0  0  0  0
 13 14  2  0  0  0  0
 15 28  1  0  0  0  0
 15 29  1  0  0  0  0
 16 17  1  0  0  0  0
 16 18  1  0  0  0  0
 16 30  1  0  0  0  0
 17 31  1  0  0  0  0
 18 19  1  0  0  0  0
 18 32  1  0  0  0  0
 19 33  1  0  0  0  0
M  END
> <OPENEYE_ISO_SMILES>
c1cn(c2c1c(ncn2)N)[C@H]3[C@@H]([C@@H]([C@H](O3)CO)O)O

> <OPENEYE_INCHI>
InChI=1S/C11H14N4O4/c12-9-5-1-2-15(10(5)14-4-13-9)11-8(18)7(17)6(3-16)19-11/h1-2,4,6-8,11,16-18H,3H2,(H2,12,13,14)/t6-,7-,8-,11-/m1/s1

> <OPENEYE_INCHIKEY>
HDZZVAMISRMYHH-KCGFPETGSA-N

> <FORMULA>
C11H14N4O4

$$$$
