@<TRIPOS>MOLECULE
/home/pku/3cl/gett_pdb/8AYS/8AYS_mol2/ligand/8AYS_92G.pdb
 21 22 0 0 0
SMALL
GASTEIGER

@<TRIPOS>ATOM
      1  O7        15.4040  -11.0660    7.4240 O.3   201  92G201     -0.5068
      2  C5        16.7190  -12.4320    4.3190 C.ar  201  92G201     -0.0491
      3  C6        16.5680  -11.6770    5.4620 C.ar  201  92G201     -0.0196
      4  C1        15.4780  -11.8780    6.2890 C.ar  201  92G201      0.1169
      5  C3        14.6720  -13.5980    4.8240 C.ar  201  92G201     -0.0491
      6  C2        14.5190  -12.8570    5.9990 C.ar  201  92G201     -0.0196
      7  C4        15.7660  -13.3900    3.9790 C.ar  201  92G201      0.0012
      8  C8        15.9610  -14.1340    2.8080 C.ar  201  92G201      0.0802
      9  C10       17.0290  -14.5820    0.8460 C.ar  201  92G201      0.1561
     10  C12       15.1790  -15.2340    2.4850 C.ar  201  92G201      0.0049
     11  S11       15.8120  -15.7940    0.9750 S.2   201  92G201     -0.0605
     12  N9        16.9160  -13.8210    1.9330 N.ar  201  92G201     -0.2252
     13  N13       17.9680  -14.4520   -0.2540 N.pl3 201  92G201     -0.3375
     14  HO7       16.2710  -10.9250    7.7700 H     201  92G201      0.2921
     15  H5        17.5820  -12.2800    3.6820 H     201  92G201      0.0625
     16  H6        17.3050  -10.9250    5.7130 H     201  92G201      0.0654
     17  H3        13.9320  -14.3450    4.5650 H     201  92G201      0.0625
     18  H2        13.6840  -13.0350    6.6650 H     201  92G201      0.0654
     19  H12       14.3550  -15.6500    3.0520 H     201  92G201      0.0716
     20 HN13       17.7520  -13.8480   -1.0240 H     201  92G201      0.1442
     21 HN1A       18.8270  -14.9700   -0.2470 H     201  92G201      0.1442
@<TRIPOS>BOND
     1    20    13    1
     2    13    21    1
     3    13     9    1
     4     9    11   ar
     5     9    12   ar
     6    11    10   ar
     7    12     8   ar
     8    10     8   ar
     9    10    19    1
    10     8     7    1
    11    15     2    1
    12     7     2   ar
    13     7     5   ar
    14     2     3   ar
    15    17     5    1
    16     5     6   ar
    17     3    16    1
    18     3     4   ar
    19     6     4   ar
    20     6    18    1
    21     4     1    1
    22     1    14    1
