T4D
  -OEChem-02242320043D

 35 36  0     0  0  0  0  0  0999 V2000
    0.4520    0.3330   -0.2470 N   0  0  0  0  0  0  0  0  0  0  0  0
    1.1330    1.2900    0.6360 C   0  0  0  0  0  0  0  0  0  0  0  0
    2.5890    1.4330    0.1740 C   0  0  0  0  0  0  0  0  0  0  0  0
   -2.2870    0.3420    0.0230 C   0  0  0  0  0  0  0  0  0  0  0  0
   -3.0920    1.3360    0.5400 C   0  0  0  0  0  0  0  0  0  0  0  0
   -4.1500    1.0100    1.3720 C   0  0  0  0  0  0  0  0  0  0  0  0
   -3.6120   -1.3150    1.1750 C   0  0  0  0  0  0  0  0  0  0  0  0
    3.1630    0.0900    0.0070 N   0  0  0  0  0  0  0  0  0  0  0  0
    5.0440    0.7680    1.4630 C   0  0  0  0  0  0  0  0  0  0  0  0
    4.7060   -1.3950    0.5830 O   0  0  0  0  0  0  0  0  0  0  0  0
    4.2930   -0.2570    0.6530 C   0  0  0  0  0  0  0  0  0  0  0  0
   -2.5440   -0.9940    0.3360 C   0  0  0  0  0  0  0  0  0  0  0  0
   -1.7150   -2.0310   -0.2020 C   0  0  0  0  0  0  0  0  0  0  0  0
    2.4810   -0.8660   -0.8760 C   0  0  0  0  0  0  0  0  0  0  0  0
    1.0260   -1.0090   -0.4140 C   0  0  0  0  0  0  0  0  0  0  0  0
   -4.4070   -0.3110    1.6900 C   0  0  0  0  0  0  0  0  0  0  0  0
   -1.0580   -2.8530   -0.6290 N   0  0  0  0  0  0  0  0  0  0  0  0
   -0.9310    2.1760   -1.1330 O   0  0  0  0  0  0  0  0  0  0  0  0
   -1.0400   -0.0970   -2.1650 O   0  0  0  0  0  0  0  0  0  0  0  0
   -0.9410    0.7580   -1.0350 S   0  0  0  0  0  0  0  0  0  0  0  0
    0.6350    2.2580    0.5810 H   0  0  0  0  0  0  0  0  0  0  0  0
    1.1100    0.9220    1.6620 H   0  0  0  0  0  0  0  0  0  0  0  0
    2.6200    1.9650   -0.7770 H   0  0  0  0  0  0  0  0  0  0  0  0
    3.1580    1.9840    0.9230 H   0  0  0  0  0  0  0  0  0  0  0  0
   -2.8970    2.3690    0.2960 H   0  0  0  0  0  0  0  0  0  0  0  0
   -4.7770    1.7920    1.7740 H   0  0  0  0  0  0  0  0  0  0  0  0
   -3.8140   -2.3460    1.4240 H   0  0  0  0  0  0  0  0  0  0  0  0
    4.6120    0.8300    2.4610 H   0  0  0  0  0  0  0  0  0  0  0  0
    6.0920    0.4750    1.5380 H   0  0  0  0  0  0  0  0  0  0  0  0
    4.9730    1.7400    0.9740 H   0  0  0  0  0  0  0  0  0  0  0  0
    2.5050   -0.4980   -1.9020 H   0  0  0  0  0  0  0  0  0  0  0  0
    2.9810   -1.8330   -0.8230 H   0  0  0  0  0  0  0  0  0  0  0  0
    0.9950   -1.5410    0.5370 H   0  0  0  0  0  0  0  0  0  0  0  0
    0.4570   -1.5600   -1.1630 H   0  0  0  0  0  0  0  0  0  0  0  0
   -5.2340   -0.5580    2.3390 H   0  0  0  0  0  0  0  0  0  0  0  0
  9 11  1  0  0  0  0
 10 11  2  0  0  0  0
  8 11  1  0  0  0  0
  8 14  1  0  0  0  0
 14 15  1  0  0  0  0
  1 15  1  0  0  0  0
  1  2  1  0  0  0  0
  2  3  1  0  0  0  0
  3  8  1  0  0  0  0
  1 20  1  0  0  0  0
 18 20  2  0  0  0  0
 19 20  2  0  0  0  0
  4 20  1  0  0  0  0
  4  5  2  0  0  0  0
  5  6  1  0  0  0  0
  6 16  2  0  0  0  0
  7 16  1  0  0  0  0
  7 12  2  0  0  0  0
  4 12  1  0  0  0  0
 12 13  1  0  0  0  0
 13 17  3  0  0  0  0
  2 21  1  0  0  0  0
  2 22  1  0  0  0  0
  3 23  1  0  0  0  0
  3 24  1  0  0  0  0
  5 25  1  0  0  0  0
  6 26  1  0  0  0  0
  7 27  1  0  0  0  0
  9 28  1  0  0  0  0
  9 29  1  0  0  0  0
  9 30  1  0  0  0  0
 14 31  1  0  0  0  0
 14 32  1  0  0  0  0
 15 33  1  0  0  0  0
 15 34  1  0  0  0  0
 16 35  1  0  0  0  0
M  END
> <OPENEYE_ISO_SMILES>
CC(=O)N1CCN(CC1)S(=O)(=O)c2ccccc2C#N

> <OPENEYE_INCHI>
InChI=1S/C13H15N3O3S/c1-11(17)15-6-8-16(9-7-15)20(18,19)13-5-3-2-4-12(13)10-14/h2-5H,6-9H2,1H3

> <OPENEYE_INCHIKEY>
GOCXXCRVJCAULM-UHFFFAOYSA-N

> <FORMULA>
C13H15N3O3S

$$$$
