@<TRIPOS>MOLECULE
/home/pku/3cl/gett_pdb/5SS3/5SS3_mol2/ligand/5SS3_RK9.pdb
 37 38 0 0 0
SMALL
GASTEIGER

@<TRIPOS>ATOM
      1  C18      -43.3520  -26.3730    0.0810 C.ar  201  RK9201     -0.0588
      2  C16      -44.0110  -28.3010    1.3260 C.ar  201  RK9201      0.0493
      3  C17      -43.0420  -27.4100    0.9440 C.ar  201  RK9201     -0.0393
      4  C10      -45.8220  -30.0500    4.0470 C.ar  201  RK9201      0.1697
      5  C20      -45.6100  -27.1690   -0.0040 C.ar  201  RK9201      0.0536
      6  C19      -44.6450  -26.2560   -0.3930 C.ar  201  RK9201     -0.0442
      7  C01      -52.6140  -29.7410    6.0440 C.3   201  RK9201     -0.0570
      8  C02      -51.2480  -29.4350    6.6070 C.3   201  RK9201      0.0215
      9  C03      -50.0980  -29.5880    5.6360 C.2   201  RK9201      0.2184
     10  C06      -47.6170  -29.5600    5.5480 C.ar  201  RK9201      0.1664
     11  C08      -45.3390  -29.6970    5.3240 C.ar  201  RK9201      0.0742
     12  C09      -43.8870  -29.6240    5.7500 C.3   201  RK9201     -0.0198
     13  C21      -47.0310  -27.0580   -0.5160 C.1   201  RK9201      0.0992
     14  C23      -45.3000  -28.1980    0.8550 C.ar  201  RK9201     -0.0219
     15  N05      -48.8290  -29.3920    6.2520 N.am  201  RK9201     -0.2647
     16  N07      -46.4320  -29.4110    6.2200 N.ar  201  RK9201     -0.2278
     17  N15      -43.6310  -29.3570    2.2210 N.pl3 201  RK9201     -0.2157
     18  N22      -48.0920  -26.9810   -0.8980 N.1   201  RK9201     -0.1909
     19  O04      -50.2040  -29.8040    4.4770 O.2   201  RK9201     -0.2754
     20  O13      -45.5750  -31.0550    1.5990 O.2   201  RK9201     -0.1494
     21  O14      -43.9520  -31.7040    3.1130 O.2   201  RK9201     -0.1494
     22  S11      -47.4320  -30.0070    4.0000 S.2   201  RK9201     -0.0317
     23  S12      -44.7400  -30.5440    2.6880 S.O2  201  RK9201      0.0805
     24 H181      -42.5940  -25.6690   -0.2270 H     201  RK9201      0.0619
     25 H171      -42.0530  -27.5480    1.3330 H     201  RK9201      0.0636
     26 H191      -44.9060  -25.4530   -1.0700 H     201  RK9201      0.0630
     27 H013      -53.1820  -30.2620    6.8060 H     201  RK9201      0.0234
     28 H012      -52.5060  -30.3670    5.1710 H     201  RK9201      0.0234
     29 H011      -53.0970  -28.8120    5.7920 H     201  RK9201      0.0234
     30 H021      -51.2390  -28.4230    6.9690 H     201  RK9201      0.0356
     31 H022      -51.0710  -30.1020    7.4380 H     201  RK9201      0.0356
     32 H091      -43.4050  -30.5690    5.5250 H     201  RK9201      0.0293
     33 H093      -43.8440  -29.4430    6.8180 H     201  RK9201      0.0293
     34 H092      -43.3970  -28.8270    5.2080 H     201  RK9201      0.0293
     35 H231      -46.0650  -28.9020    1.1600 H     201  RK9201      0.0649
     36 H051      -48.7880  -29.2710    7.2350 H     201  RK9201      0.1567
     37 H151      -42.6850  -29.4110    2.5560 H     201  RK9201      0.1737
@<TRIPOS>BOND
     1    26     6    1
     2    18    13    3
     3    13     5    1
     4     6     5   ar
     5     6     1   ar
     6    24     1    1
     7     5    14   ar
     8     1     3   ar
     9    14    35    1
    10    14     2   ar
    11     3     2   ar
    12     3    25    1
    13     2    17    1
    14    20    23    2
    15    17    37    1
    16    17    23    1
    17    23    21    2
    18    23     4    1
    19    22     4   ar
    20    22    10   ar
    21     4    11   ar
    22    19     9    2
    23    28     7    1
    24    34    12    1
    25    11    12    1
    26    11    16   ar
    27    32    12    1
    28    10    16   ar
    29    10    15    1
    30     9    15   am
    31     9     8    1
    32    12    33    1
    33    29     7    1
    34     7     8    1
    35     7    27    1
    36    15    36    1
    37     8    30    1
    38     8    31    1
