4F4
  -OEChem-02242320003D

 52 56  0     0  0  0  0  0  0999 V2000
   -0.1590    0.2820   -0.3330 C   0  0  0  0  0  0  0  0  0  0  0  0
    1.9370   -1.0410    0.6370 O   0  0  0  0  0  0  0  0  0  0  0  0
    2.1770   -0.0490   -0.0190 C   0  0  0  0  0  0  0  0  0  0  0  0
    1.1710    0.6410   -0.5900 N   0  0  0  0  0  0  0  0  0  0  0  0
    1.4670    1.7680   -1.4770 C   0  0  0  0  0  0  0  0  0  0  0  0
    1.5330    3.0400   -0.6710 C   0  0  0  0  0  0  0  0  0  0  0  0
    2.6800    3.5280   -0.1950 C   0  0  0  0  0  0  0  0  0  0  0  0
    2.3650    5.0150    0.6910 S   0  0  0  0  0  0  0  0  0  0  0  0
    0.6430    4.8860    0.3540 C   0  0  0  0  0  0  0  0  0  0  0  0
    0.4100    3.7920   -0.3730 C   0  0  0  0  0  0  0  0  0  0  0  0
   -0.4390   -0.8400    0.4350 C   0  0  0  0  0  0  0  0  0  0  0  0
   -1.7500   -1.1940    0.6870 C   0  0  0  0  0  0  0  0  0  0  0  0
   -2.7870   -0.4280    0.1730 C   0  0  0  0  0  0  0  0  0  0  0  0
   -4.1160   -0.7870    0.4290 N   0  0  0  0  0  0  0  0  0  0  0  0
   -5.0640   -0.5750   -0.5060 C   0  0  0  0  0  0  0  0  0  0  0  0
   -6.4700   -0.8470   -0.1980 C   0  0  0  0  0  0  0  0  0  0  0  0
   -7.5180   -0.6730   -1.0580 C   0  0  0  0  0  0  0  0  0  0  0  0
   -8.7330   -1.0070   -0.5090 C   0  0  0  0  0  0  0  0  0  0  0  0
   -8.6850   -1.4410    0.7560 C   0  0  0  0  0  0  0  0  0  0  0  0
   -7.0800   -1.4580    1.3340 S   0  0  0  0  0  0  0  0  0  0  0  0
   -4.7510   -0.1570   -1.6050 O   0  0  0  0  0  0  0  0  0  0  0  0
   -2.5070    0.6950   -0.5960 C   0  0  0  0  0  0  0  0  0  0  0  0
   -1.1970    1.0520   -0.8430 C   0  0  0  0  0  0  0  0  0  0  0  0
    3.6020    0.4100   -0.1960 C   0  0  0  0  0  0  0  0  0  0  0  0
    4.5090   -0.5680    0.4110 N   0  0  0  0  0  0  0  0  0  0  0  0
    5.0740   -1.6590   -0.2060 C   0  0  0  0  0  0  0  0  0  0  0  0
    5.0050   -2.1860   -1.4910 C   0  0  0  0  0  0  0  0  0  0  0  0
    5.7060   -3.3180   -1.7990 C   0  0  0  0  0  0  0  0  0  0  0  0
    6.4880   -3.9490   -0.8390 C   0  0  0  0  0  0  0  0  0  0  0  0
    6.5720   -3.4520    0.4280 C   0  0  0  0  0  0  0  0  0  0  0  0
    5.8630   -2.2920    0.7700 C   0  0  0  0  0  0  0  0  0  0  0  0
    5.7520   -1.5820    1.9100 N   0  0  0  0  0  0  0  0  0  0  0  0
    4.9760   -0.5710    1.7330 N   0  0  0  0  0  0  0  0  0  0  0  0
    2.4240    1.6000   -1.9710 H   0  0  0  0  0  0  0  0  0  0  0  0
    0.6820    1.8550   -2.2290 H   0  0  0  0  0  0  0  0  0  0  0  0
    3.6520    3.0790   -0.3320 H   0  0  0  0  0  0  0  0  0  0  0  0
   -0.1100    5.5870    0.6820 H   0  0  0  0  0  0  0  0  0  0  0  0
   -0.5810    3.5100   -0.6980 H   0  0  0  0  0  0  0  0  0  0  0  0
    0.3680   -1.4360    0.8340 H   0  0  0  0  0  0  0  0  0  0  0  0
   -1.9670   -2.0670    1.2840 H   0  0  0  0  0  0  0  0  0  0  0  0
   -4.3550   -1.1880    1.2790 H   0  0  0  0  0  0  0  0  0  0  0  0
   -7.4030   -0.3080   -2.0680 H   0  0  0  0  0  0  0  0  0  0  0  0
   -9.6600   -0.9220   -1.0570 H   0  0  0  0  0  0  0  0  0  0  0  0
   -9.5460   -1.7420    1.3330 H   0  0  0  0  0  0  0  0  0  0  0  0
   -3.3140    1.2910   -0.9960 H   0  0  0  0  0  0  0  0  0  0  0  0
   -0.9790    1.9250   -1.4400 H   0  0  0  0  0  0  0  0  0  0  0  0
    3.8240    0.5010   -1.2590 H   0  0  0  0  0  0  0  0  0  0  0  0
    3.7340    1.3770    0.2870 H   0  0  0  0  0  0  0  0  0  0  0  0
    4.3990   -1.7030   -2.2430 H   0  0  0  0  0  0  0  0  0  0  0  0
    5.6510   -3.7270   -2.7970 H   0  0  0  0  0  0  0  0  0  0  0  0
    7.0350   -4.8430   -1.1000 H   0  0  0  0  0  0  0  0  0  0  0  0
    7.1830   -3.9510    1.1660 H   0  0  0  0  0  0  0  0  0  0  0  0
 18 19  2  0  0  0  0
 17 18  1  0  0  0  0
 19 20  1  0  0  0  0
 16 17  2  0  0  0  0
 16 20  1  0  0  0  0
 15 16  1  0  0  0  0
 14 15  1  0  0  0  0
 15 21  2  0  0  0  0
 13 14  1  0  0  0  0
 13 22  2  0  0  0  0
 22 23  1  0  0  0  0
 12 13  1  0  0  0  0
  1 23  2  0  0  0  0
 11 12  2  0  0  0  0
  8  9  1  0  0  0  0
  7  8  1  0  0  0  0
  9 10  2  0  0  0  0
  1 11  1  0  0  0  0
  1  4  1  0  0  0  0
 24 25  1  0  0  0  0
  3 24  1  0  0  0  0
  6 10  1  0  0  0  0
  6  7  2  0  0  0  0
 25 33  1  0  0  0  0
 32 33  2  0  0  0  0
 25 26  1  0  0  0  0
  5  6  1  0  0  0  0
  3  4  1  0  0  0  0
  4  5  1  0  0  0  0
  2  3  2  0  0  0  0
 31 32  1  0  0  0  0
 26 31  2  0  0  0  0
 26 27  1  0  0  0  0
 30 31  1  0  0  0  0
 27 28  2  0  0  0  0
 29 30  2  0  0  0  0
 28 29  1  0  0  0  0
  5 34  1  0  0  0  0
  5 35  1  0  0  0  0
  7 36  1  0  0  0  0
  9 37  1  0  0  0  0
 10 38  1  0  0  0  0
 11 39  1  0  0  0  0
 12 40  1  0  0  0  0
 14 41  1  0  0  0  0
 17 42  1  0  0  0  0
 18 43  1  0  0  0  0
 19 44  1  0  0  0  0
 22 45  1  0  0  0  0
 23 46  1  0  0  0  0
 24 47  1  0  0  0  0
 24 48  1  0  0  0  0
 27 49  1  0  0  0  0
 28 50  1  0  0  0  0
 29 51  1  0  0  0  0
 30 52  1  0  0  0  0
M  END
> <OPENEYE_ISO_SMILES>
c1ccc2c(c1)nnn2CC(=O)N(Cc3ccsc3)c4ccc(cc4)NC(=O)c5cccs5

> <OPENEYE_INCHI>
InChI=1S/C24H19N5O2S2/c30-23(15-29-21-5-2-1-4-20(21)26-27-29)28(14-17-11-13-32-16-17)19-9-7-18(8-10-19)25-24(31)22-6-3-12-33-22/h1-13,16H,14-15H2,(H,25,31)

> <OPENEYE_INCHIKEY>
HQQZSZFMWLZVJI-UHFFFAOYSA-N

> <FORMULA>
C24H19N5O2S2

$$$$
