A1R
  -OEChem-02242320013D

 59 62  0     1  0  0  0  0  0999 V2000
    7.2200    2.2270    2.4850 N   0  0  0  0  0  0  0  0  0  0  0  0
    6.4600    1.5350    3.3690 C   0  0  0  0  0  0  0  0  0  0  0  0
    5.1200    1.3670    3.3840 N   0  0  0  0  0  0  0  0  0  0  0  0
    4.5550    2.0070    2.3500 C   0  0  0  0  0  0  0  0  0  0  0  0
    5.1970    2.7500    1.3720 C   0  0  0  0  0  0  0  0  0  0  0  0
    6.5820    2.8490    1.4650 C   0  0  0  0  0  0  0  0  0  0  0  0
    7.3150    3.5820    0.5150 N   0  0  0  0  0  0  0  0  0  0  0  0
    4.2920    3.2580    0.4740 N   0  0  0  0  0  0  0  0  0  0  0  0
    3.1210    2.8310    0.8990 C   0  0  0  0  0  0  0  0  0  0  0  0
    3.2270    2.0690    2.0330 N   0  0  0  0  0  0  0  0  0  0  0  0
    2.1220    1.4440    2.7580 C   0  0  1  0  0  0  0  0  0  0  0  0
    1.4570    2.3540    3.7790 C   0  0  2  0  0  0  0  0  0  0  0  0
    2.1470    2.3540    5.0130 O   0  0  0  0  0  0  0  0  0  0  0  0
    0.0740    1.7420    3.8730 C   0  0  2  0  0  0  0  0  0  0  0  0
    0.1270    0.5670    4.6820 O   0  0  0  0  0  0  0  0  0  0  0  0
    1.0890    1.0600    1.8310 O   0  0  0  0  0  0  0  0  0  0  0  0
   -0.1990    1.3330    2.4290 C   0  0  2  0  0  0  0  0  0  0  0  0
   -0.8810    2.4280    1.6210 C   0  0  0  0  0  0  0  0  0  0  0  0
   -2.1270    2.7380    2.2210 O   0  0  0  0  0  0  0  0  0  0  0  0
   -3.0480    3.8810    1.5420 P   0  0  2  0  0  0  0  0  0  0  0  0
   -4.3560    4.1660    2.2210 O   0  0  0  0  0  0  0  0  0  0  0  0
   -3.1670    3.4310   -0.0070 O   0  0  0  0  0  0  0  0  0  0  0  0
   -2.0170    5.1250    1.4940 O   0  0  0  0  0  0  0  0  0  0  0  0
   -2.1580    6.5950    0.8350 P   0  0  2  0  0  0  0  0  0  0  0  0
   -3.3490    7.2730    1.6950 O   0  0  0  0  0  0  0  0  0  0  0  0
   -2.3920    6.5850   -0.6480 O   0  0  0  0  0  0  0  0  0  0  0  0
   -0.8230    7.3800    1.3060 O   0  0  0  0  0  0  0  0  0  0  0  0
   -0.4950    7.4580    2.6820 C   0  0  0  0  0  0  0  0  0  0  0  0
    1.4510    7.5980    4.2250 N   0  0  0  0  0  0  0  0  0  0  0  0
    2.5840    6.6730    4.4070 C   0  0  0  0  0  0  0  0  0  0  0  0
    3.9420    7.2810    2.5330 O   0  0  0  0  0  0  0  0  0  0  0  0
    3.0360    6.2920    3.0090 C   0  0  2  0  0  0  0  0  0  0  0  0
    1.9550    6.4270    0.8460 O   0  0  0  0  0  0  0  0  0  0  0  0
    1.7290    6.3140    2.2370 C   0  0  2  0  0  0  0  0  0  0  0  0
    1.0210    7.5340    2.8180 C   0  0  1  0  0  0  0  0  0  0  0  0
    7.0030    1.0490    4.1720 H   0  0  0  0  0  0  0  0  0  0  0  0
    6.8270    4.0880   -0.1990 H   0  0  0  0  0  0  0  0  0  0  0  0
    8.3150    3.5150    0.5060 H   0  0  0  0  0  0  0  0  0  0  0  0
    2.1680    3.0390    0.4310 H   0  0  0  0  0  0  0  0  0  0  0  0
    2.5470    0.5420    3.2110 H   0  0  0  0  0  0  0  0  0  0  0  0
    1.3940    3.3840    3.4080 H   0  0  0  0  0  0  0  0  0  0  0  0
    2.0200    1.4770    5.4140 H   0  0  0  0  0  0  0  0  0  0  0  0
   -0.6770    2.4100    4.3040 H   0  0  0  0  0  0  0  0  0  0  0  0
    0.2250    0.8700    5.5970 H   0  0  0  0  0  0  0  0  0  0  0  0
   -0.7930    0.4160    2.3680 H   0  0  0  0  0  0  0  0  0  0  0  0
   -1.0580    2.0940    0.5940 H   0  0  0  0  0  0  0  0  0  0  0  0
   -0.2650    3.3320    1.6020 H   0  0  0  0  0  0  0  0  0  0  0  0
   -3.7270    3.9600   -0.6140 H   0  0  0  0  0  0  0  0  0  0  0  0
   -3.7180    8.1320    1.3970 H   0  0  0  0  0  0  0  0  0  0  0  0
   -0.9540    8.3490    3.1110 H   0  0  0  0  0  0  0  0  0  0  0  0
   -0.8720    6.5700    3.1920 H   0  0  0  0  0  0  0  0  0  0  0  0
    0.6920    7.3320    4.8510 H   0  0  0  0  0  0  0  0  0  0  0  0
    2.2310    5.7840    4.9430 H   0  0  0  0  0  0  0  0  0  0  0  0
    3.3720    7.1520    4.9940 H   0  0  0  0  0  0  0  0  0  0  0  0
    3.5940    8.1390    2.8220 H   0  0  0  0  0  0  0  0  0  0  0  0
    3.5370    5.3210    2.9650 H   0  0  0  0  0  0  0  0  0  0  0  0
    2.1840    7.3550    0.6650 H   0  0  0  0  0  0  0  0  0  0  0  0
    1.1580    5.3980    2.4310 H   0  0  0  0  0  0  0  0  0  0  0  0
    1.3550    8.4450    2.3070 H   0  0  0  0  0  0  0  0  0  0  0  0
  1  2  2  0  0  0  0
  1  6  1  0  0  0  0
  2  3  1  0  0  0  0
  2 36  1  0  0  0  0
  3  4  2  0  0  0  0
  4  5  1  0  0  0  0
  4 10  1  0  0  0  0
  5  6  2  0  0  0  0
  5  8  1  0  0  0  0
  6  7  1  0  0  0  0
  7 37  1  0  0  0  0
  7 38  1  0  0  0  0
  8  9  2  0  0  0  0
  9 10  1  0  0  0  0
  9 39  1  0  0  0  0
 10 11  1  0  0  0  0
 11 16  1  0  0  0  0
 11 12  1  0  0  0  0
 11 40  1  0  0  0  0
 12 13  1  0  0  0  0
 12 14  1  0  0  0  0
 12 41  1  0  0  0  0
 13 42  1  0  0  0  0
 14 17  1  0  0  0  0
 14 15  1  0  0  0  0
 14 43  1  0  0  0  0
 15 44  1  0  0  0  0
 16 17  1  0  0  0  0
 17 18  1  0  0  0  0
 17 45  1  0  0  0  0
 18 19  1  0  0  0  0
 18 46  1  0  0  0  0
 18 47  1  0  0  0  0
 19 20  1  0  0  0  0
 20 23  1  0  0  0  0
 20 21  2  0  0  0  0
 20 22  1  0  0  0  0
 22 48  1  0  0  0  0
 23 24  1  0  0  0  0
 24 26  2  0  0  0  0
 24 25  1  0  0  0  0
 24 27  1  0  0  0  0
 25 49  1  0  0  0  0
 27 28  1  0  0  0  0
 28 35  1  0  0  0  0
 28 50  1  0  0  0  0
 28 51  1  0  0  0  0
 29 35  1  0  0  0  0
 29 30  1  0  0  0  0
 29 52  1  0  0  0  0
 30 32  1  0  0  0  0
 30 53  1  0  0  0  0
 30 54  1  0  0  0  0
 31 32  1  0  0  0  0
 31 55  1  0  0  0  0
 32 34  1  0  0  0  0
 32 56  1  0  0  0  0
 33 34  1  0  0  0  0
 33 57  1  0  0  0  0
 34 35  1  0  0  0  0
 34 58  1  0  0  0  0
 35 59  1  0  0  0  0
M  END
> <OPENEYE_ISO_SMILES>
c1nc(c2c(n1)n(cn2)[C@H]3[C@@H]([C@@H]([C@H](O3)CO[P@](=O)(O)O[P@@](=O)(O)OC[C@@H]4[C@H]([C@H](CN4)O)O)O)O)N

> <OPENEYE_INCHI>
InChI=1S/C15H24N6O12P2/c16-13-9-14(19-4-18-13)21(5-20-9)15-12(25)11(24)8(32-15)3-31-35(28,29)33-34(26,27)30-2-6-10(23)7(22)1-17-6/h4-8,10-12,15,17,22-25H,1-3H2,(H,26,27)(H,28,29)(H2,16,18,19)/t6-,7+,8-,10-,11-,12-,15-/m1/s1

> <OPENEYE_INCHIKEY>
NDQDTBCXPOIQGT-UHNJQBFTSA-N

> <FORMULA>
C15H24N6O12P2

$$$$
