MPO
  -OEChem-02242320033D

 28 28  0     0  0  0  0  0  0999 V2000
    0.1550    0.0700    3.0860 S   0  0  0  0  0  0  0  0  0  0  0  0
   -0.0760    1.4410    3.3790 O   0  0  0  0  0  0  0  0  0  0  0  0
    1.4580   -0.4950    3.1010 O   0  0  0  0  0  0  0  0  0  0  0  0
    0.6640   -0.2680   -4.6390 O   0  0  0  0  0  0  0  0  0  0  0  0
   -0.4530    0.3250   -2.0530 N   0  0  0  0  0  0  0  0  0  0  0  0
   -0.7930   -0.4730    1.6390 C   0  0  0  0  0  0  0  0  0  0  0  0
   -0.5340   -0.6410    4.2410 O   0  0  0  0  0  0  0  0  0  0  0  0
   -0.2110    0.1680    0.3780 C   0  0  0  0  0  0  0  0  0  0  0  0
   -1.0120   -0.2900   -0.8420 C   0  0  0  0  0  0  0  0  0  0  0  0
   -1.2620   -0.1530   -3.1820 C   0  0  0  0  0  0  0  0  0  0  0  0
   -0.6320    0.3090   -4.4960 C   0  0  0  0  0  0  0  0  0  0  0  0
    1.4670    0.2290   -3.5690 C   0  0  0  0  0  0  0  0  0  0  0  0
    0.8910   -0.2360   -2.2310 C   0  0  0  0  0  0  0  0  0  0  0  0
   -0.7360   -1.5580    1.5540 H   0  0  0  0  0  0  0  0  0  0  0  0
   -1.8340   -0.1720    1.7530 H   0  0  0  0  0  0  0  0  0  0  0  0
   -0.0660   -0.3860    5.0470 H   0  0  0  0  0  0  0  0  0  0  0  0
   -0.2690    1.2530    0.4620 H   0  0  0  0  0  0  0  0  0  0  0  0
    0.8290   -0.1330    0.2640 H   0  0  0  0  0  0  0  0  0  0  0  0
   -0.9540   -1.3750   -0.9270 H   0  0  0  0  0  0  0  0  0  0  0  0
   -2.0530    0.0100   -0.7280 H   0  0  0  0  0  0  0  0  0  0  0  0
   -1.3030   -1.2430   -3.1630 H   0  0  0  0  0  0  0  0  0  0  0  0
   -2.2720    0.2480   -3.1010 H   0  0  0  0  0  0  0  0  0  0  0  0
   -1.2620   -0.0010   -5.3300 H   0  0  0  0  0  0  0  0  0  0  0  0
   -0.5470    1.3960   -4.4930 H   0  0  0  0  0  0  0  0  0  0  0  0
    2.4850   -0.1450   -3.6750 H   0  0  0  0  0  0  0  0  0  0  0  0
    1.4780    1.3180   -3.5990 H   0  0  0  0  0  0  0  0  0  0  0  0
    1.5360    0.1020   -1.4200 H   0  0  0  0  0  0  0  0  0  0  0  0
    0.8350   -1.3250   -2.2190 H   0  0  0  0  0  0  0  0  0  0  0  0
  1  2  2  0  0  0  0
  1  3  2  0  0  0  0
  1  6  1  0  0  0  0
  1  7  1  0  0  0  0
  4 11  1  0  0  0  0
  4 12  1  0  0  0  0
  5  9  1  0  0  0  0
  5 10  1  0  0  0  0
  5 13  1  0  0  0  0
  6  8  1  0  0  0  0
  6 14  1  0  0  0  0
  6 15  1  0  0  0  0
  7 16  1  0  0  0  0
  8  9  1  0  0  0  0
  8 17  1  0  0  0  0
  8 18  1  0  0  0  0
  9 19  1  0  0  0  0
  9 20  1  0  0  0  0
 10 11  1  0  0  0  0
 10 21  1  0  0  0  0
 10 22  1  0  0  0  0
 11 23  1  0  0  0  0
 11 24  1  0  0  0  0
 12 13  1  0  0  0  0
 12 25  1  0  0  0  0
 12 26  1  0  0  0  0
 13 27  1  0  0  0  0
 13 28  1  0  0  0  0
M  END
> <OPENEYE_ISO_SMILES>
C1COCCN1CCCS(=O)(=O)O

> <OPENEYE_INCHI>
InChI=1S/C7H15NO4S/c9-13(10,11)7-1-2-8-3-5-12-6-4-8/h1-7H2,(H,9,10,11)

> <OPENEYE_INCHIKEY>
DVLFYONBTKHTER-UHFFFAOYSA-N

> <FORMULA>
C7H15NO4S

$$$$
