@<TRIPOS>MOLECULE
/home/pku/3cl/gett_pdb/7SDC/7SDC_mol2/ligand/7SDC_I80.pdb
 36 39 0 0 0
SMALL
GASTEIGER

@<TRIPOS>ATOM
      1  C11       -9.6450  -17.8630  -17.8490 C.3   401  I80401      0.2896
      2  C12       -9.9820  -16.5370  -17.2090 C.2   401  I80401      0.2705
      3  C13       -8.2430  -15.4580  -18.6700 C.3   401  I80401      0.0939
      4  C14       -9.4980  -14.1760  -17.0260 C.3   401  I80401      0.1535
      5  C15      -10.8950  -13.7170  -17.3280 C.2   401  I80401      0.2595
      6  C16       -7.7210  -14.0330  -18.7360 C.3   401  I80401      0.0220
      7  C17      -12.9450  -12.6910  -16.5000 C.3   401  I80401      0.1287
      8  C18       -7.0150  -13.5280  -17.4730 C.3   401  I80401      0.0037
      9  C19      -13.9460  -13.4910  -15.6400 C.3   401  I80401      0.0335
     10  C20      -13.9960  -14.9670  -16.0450 C.3   401  I80401      0.0818
     11  C21      -14.6970  -15.1740  -17.3910 C.3   401  I80401      0.0326
     12  C22      -15.6240  -16.3840  -17.2070 C.3   401  I80401      0.1156
     13  C23       -6.5320  -14.6510  -16.5510 C.3   401  I80401      0.0001
     14  C24      -14.7960  -15.8350  -15.1110 C.2   401  I80401      0.2410
     15  C25       -5.9750  -12.4810  -17.8720 C.3   401  I80401      0.0001
     16  C26       -5.6390  -23.0620  -20.2400 C.3   401  I80401      0.5753
     17  C3        -7.7240  -19.3320  -17.7770 C.ar  401  I80401      0.1395
     18  C34       -8.5020  -13.2310  -17.7040 C.3   401  I80401      0.0289
     19  C4        -6.8670  -19.9760  -16.8890 C.ar  401  I80401      0.0400
     20  C5        -6.2870  -21.1950  -17.2380 C.ar  401  I80401      0.0403
     21  C6        -6.5860  -21.7500  -18.4760 C.ar  401  I80401      0.1470
     22  C7        -7.4430  -21.0950  -19.3540 C.ar  401  I80401      0.0403
     23  C8       -12.8760  -11.1990  -16.1320 C.3   401  I80401      0.2036
     24  C9        -7.9960  -19.8700  -19.0230 C.ar  401  I80401      0.0400
     25  F27       -5.9780  -24.1380  -20.9330 F     401  I80401     -0.1328
     26  F28       -5.1160  -22.0180  -20.8560 F     401  I80401     -0.1328
     27  F29       -4.4430  -23.5440  -19.9310 F     401  I80401     -0.1328
     28  N13       -9.2810  -15.4790  -17.6320 N.am  401  I80401     -0.2699
     29  N16      -11.5940  -13.2080  -16.3290 N.am  401  I80401     -0.2031
     30  N23      -15.6580  -16.5980  -15.7780 N.am  401  I80401     -0.2054
     31  O1        -8.3010  -18.1480  -17.4480 O.3   401  I80401     -0.4656
     32  O10       -6.0360  -22.9410  -18.8760 O.3   401  I80401     -0.4045
     33  O26      -14.6800  -15.8250  -13.8940 O.2   401  I80401     -0.2734
     34  O33      -10.8370  -16.4810  -16.3400 O.2   401  I80401     -0.2708
     35  O38      -11.3510  -13.8240  -18.4520 O.2   401  I80401     -0.2716
     36  O9       -14.1750  -10.6070  -16.0800 O.3   401  I80401     -0.2185
@<TRIPOS>BOND
     1    25    16    1
     2    26    16    1
     3    16    27    1
     4    16    32    1
     5    22    24   ar
     6    22    21   ar
     7    24    17   ar
     8    32    21    1
     9     6     3    1
    10     6    18    1
    11     6     8    1
    12     3    28    1
    13    21    20   ar
    14    35     5    2
    15    15     8    1
    16     1    31    1
    17     1     2    1
    18    17    31    1
    19    17    19   ar
    20    18     8    1
    21    18     4    1
    22    28     2   am
    23    28     4    1
    24     8    13    1
    25    11    12    1
    26    11    10    1
    27     5     4    1
    28     5    29   am
    29    20    19   ar
    30     2    34    2
    31    12    30    1
    32     7    29    1
    33     7    23    1
    34     7     9    1
    35    23    36    1
    36    10     9    1
    37    10    14    1
    38    30    14   am
    39    14    33    2
