S5O
  -OEChem-02242320043D

 38 41  0     1  0  0  0  0  0999 V2000
   -2.4430    2.4690    0.3850 C   0  0  0  0  0  0  0  0  0  0  0  0
   -3.6510    0.5670   -0.0900 C   0  0  0  0  0  0  0  0  0  0  0  0
   -4.1560   -1.5050   -0.4800 C   0  0  0  0  0  0  0  0  0  0  0  0
   -2.4650   -0.1820   -0.0130 C   0  0  0  0  0  0  0  0  0  0  0  0
   -1.2700    0.4840    0.2640 C   0  0  0  0  0  0  0  0  0  0  0  0
    0.1840   -0.9490   -0.8820 C   0  0  0  0  0  0  0  0  0  0  0  0
    3.5070    1.0130   -0.5120 C   0  0  0  0  0  0  0  0  0  0  0  0
    3.1820   -0.3520    0.0390 C   0  0  2  0  0  0  0  0  0  0  0  0
    2.6470   -1.2110   -1.0860 C   0  0  0  0  0  0  0  0  0  0  0  0
    1.3520   -1.9250   -0.6920 C   0  0  1  0  0  0  0  0  0  0  0  0
    1.4470   -2.5330    0.6830 C   0  0  0  0  0  0  0  0  0  0  0  0
    1.7130   -1.5030    1.7660 C   0  0  0  0  0  0  0  0  0  0  0  0
    2.2130   -0.1870    1.2020 C   0  0  2  0  0  0  0  0  0  0  0  0
    1.0150    0.6680    0.7840 C   0  0  0  0  0  0  0  0  0  0  0  0
   -0.0740   -0.2100    0.3450 N   0  0  1  0  0  0  0  0  0  0  0  0
   -2.8220   -1.4900   -0.2660 N   0  0  0  0  0  0  0  0  0  0  0  0
   -4.6410   -0.2990   -0.3770 N   0  0  0  0  0  0  0  0  0  0  0  0
   -3.5900    1.8870    0.1160 N   0  0  0  0  0  0  0  0  0  0  0  0
   -1.3060    1.8000    0.4610 N   0  0  0  0  0  0  0  0  0  0  0  0
    2.9480    1.4130   -1.5050 O   0  0  0  0  0  0  0  0  0  0  0  0
    4.4200    1.7840    0.1010 O   0  0  0  0  0  0  0  0  0  0  0  0
   -2.4280    3.5370    0.5470 H   0  0  0  0  0  0  0  0  0  0  0  0
   -4.7370   -2.3880   -0.7040 H   0  0  0  0  0  0  0  0  0  0  0  0
    0.4290   -0.2480   -1.6790 H   0  0  0  0  0  0  0  0  0  0  0  0
   -0.7090   -1.5090   -1.1580 H   0  0  0  0  0  0  0  0  0  0  0  0
    4.1000   -0.8020    0.4150 H   0  0  0  0  0  0  0  0  0  0  0  0
    2.4550   -0.5810   -1.9540 H   0  0  0  0  0  0  0  0  0  0  0  0
    3.3960   -1.9580   -1.3480 H   0  0  0  0  0  0  0  0  0  0  0  0
    1.2080   -2.7490   -1.3910 H   0  0  0  0  0  0  0  0  0  0  0  0
    0.5100   -3.0440    0.9070 H   0  0  0  0  0  0  0  0  0  0  0  0
    2.2560   -3.2630    0.6890 H   0  0  0  0  0  0  0  0  0  0  0  0
    0.7890   -1.3230    2.3160 H   0  0  0  0  0  0  0  0  0  0  0  0
    2.4600   -1.8990    2.4540 H   0  0  0  0  0  0  0  0  0  0  0  0
    2.7300    0.3470    2.0000 H   0  0  0  0  0  0  0  0  0  0  0  0
    0.6820    1.2670    1.6310 H   0  0  0  0  0  0  0  0  0  0  0  0
    1.3060    1.3250   -0.0360 H   0  0  0  0  0  0  0  0  0  0  0  0
   -2.2260   -2.2550   -0.2850 H   0  0  0  0  0  0  0  0  0  0  0  0
    4.5950    2.6510   -0.2900 H   0  0  0  0  0  0  0  0  0  0  0  0
 11 12  1  0  0  0  0
 12 13  1  0  0  0  0
 10 11  1  0  0  0  0
  9 10  1  0  0  0  0
  6 10  1  0  0  0  0
  8 13  1  0  0  0  0
 13 14  1  0  0  0  0
  8  9  1  0  0  0  0
  7  8  1  0  0  0  0
 14 15  1  0  0  0  0
  6 15  1  0  0  0  0
  5 15  1  0  0  0  0
  7 20  2  0  0  0  0
  7 21  1  0  0  0  0
  5 19  2  0  0  0  0
  4  5  1  0  0  0  0
  1 19  1  0  0  0  0
  1 18  2  0  0  0  0
  4 16  1  0  0  0  0
  2  4  2  0  0  0  0
  3 16  1  0  0  0  0
  2 18  1  0  0  0  0
  2 17  1  0  0  0  0
  3 17  2  0  0  0  0
  1 22  1  0  0  0  0
  3 23  1  0  0  0  0
  6 24  1  0  0  0  0
  6 25  1  0  0  0  0
  8 26  1  0  0  0  0
  9 27  1  0  0  0  0
  9 28  1  0  0  0  0
 10 29  1  0  0  0  0
 11 30  1  0  0  0  0
 11 31  1  0  0  0  0
 12 32  1  0  0  0  0
 12 33  1  0  0  0  0
 13 34  1  0  0  0  0
 14 35  1  0  0  0  0
 14 36  1  0  0  0  0
 16 37  1  0  0  0  0
 21 38  1  0  0  0  0
M  END
> <OPENEYE_ISO_SMILES>
c1[nH]c2c(n1)ncnc2[N@]3C[C@@H]4CC[C@H](C3)[C@@H](C4)C(=O)O

> <OPENEYE_INCHI>
InChI=1S/C14H17N5O2/c20-14(21)10-3-8-1-2-9(10)5-19(4-8)13-11-12(16-6-15-11)17-7-18-13/h6-10H,1-5H2,(H,20,21)(H,15,16,17,18)/t8-,9-,10-/m1/s1

> <OPENEYE_INCHIKEY>
QXWCPCWNFDNBBL-OPRDCNLKSA-N

> <FORMULA>
C14H17N5O2

$$$$
