5LJ
  -OEChem-02242320013D

 95 98  0     1  0  0  0  0  0999 V2000
    2.5810    1.5030    0.5140 C   0  0  0  0  0  0  0  0  0  0  0  0
    1.7740    1.3310    1.4060 O   0  0  0  0  0  0  0  0  0  0  0  0
    3.8990    1.4860    0.7870 O   0  0  0  0  0  0  0  0  0  0  0  0
    4.2830    1.2590    2.1690 C   0  0  0  0  0  0  0  0  0  0  0  0
    5.7860    1.2740    2.2820 C   0  0  0  0  0  0  0  0  0  0  0  0
    6.4480    2.4610    2.5360 C   0  0  0  0  0  0  0  0  0  0  0  0
    7.8260    2.4760    2.6390 C   0  0  0  0  0  0  0  0  0  0  0  0
    8.5430    1.3030    2.4890 C   0  0  0  0  0  0  0  0  0  0  0  0
    7.8810    0.1160    2.2360 C   0  0  0  0  0  0  0  0  0  0  0  0
    6.5020    0.1010    2.1370 C   0  0  0  0  0  0  0  0  0  0  0  0
   -6.7960   -0.7420    1.4640 N   0  0  0  0  0  0  0  0  0  0  0  0
   -6.1300    0.4850    1.8970 C   0  0  0  0  0  0  0  0  0  0  0  0
   -6.0670    1.4770    0.7340 C   0  0  0  0  0  0  0  0  0  0  0  0
   -5.8170    2.8850    1.2760 C   0  0  0  0  0  0  0  0  0  0  0  0
   -5.3830    3.8050    0.1340 C   0  0  0  0  0  0  0  0  0  0  0  0
   -3.9250    4.2290    0.3410 C   0  0  0  0  0  0  0  0  0  0  0  0
   -3.5120    5.1730   -0.7890 C   0  0  0  0  0  0  0  0  0  0  0  0
   -2.2150    4.7820   -1.3430 N   0  0  0  0  0  0  0  0  0  0  0  0
   -1.6960    3.5380   -1.4040 C   0  0  0  0  0  0  0  0  0  0  0  0
   -0.4890    3.6550   -2.0060 C   0  0  0  0  0  0  0  0  0  0  0  0
    0.4780    2.5400   -2.3130 C   0  0  0  0  0  0  0  0  0  0  0  0
    0.7230    1.7150   -1.0480 C   0  0  2  0  0  0  0  0  0  0  0  0
    2.1570    1.7030   -0.7500 N   0  0  0  0  0  0  0  0  0  0  0  0
    0.2370    0.3030   -1.2600 C   0  0  0  0  0  0  0  0  0  0  0  0
   -0.5580    0.0460   -2.1400 O   0  0  0  0  0  0  0  0  0  0  0  0
   -0.3260    4.9550   -2.2760 N   0  0  0  0  0  0  0  0  0  0  0  0
   -1.3630    5.5980   -1.8700 N   0  0  0  0  0  0  0  0  0  0  0  0
    0.7020   -0.6800   -0.4390 N   0  0  0  0  0  0  0  0  0  0  0  0
    0.2250   -2.0530   -0.7040 C   0  0  2  0  0  0  0  0  0  0  0  0
   -0.9210   -2.3550    0.2280 C   0  0  0  0  0  0  0  0  0  0  0  0
   -1.1670   -1.6120    1.1550 O   0  0  0  0  0  0  0  0  0  0  0  0
    1.3630   -3.0430   -0.4550 C   0  0  0  0  0  0  0  0  0  0  0  0
    2.4820   -2.8000   -1.4700 C   0  0  0  0  0  0  0  0  0  0  0  0
    1.9710   -3.1160   -2.8780 C   0  0  0  0  0  0  0  0  0  0  0  0
    3.0890   -2.8720   -3.8930 C   0  0  0  0  0  0  0  0  0  0  0  0
    4.2790   -3.7770   -3.5670 C   0  0  0  0  0  0  0  0  0  0  0  0
    4.7900   -3.4620   -2.1600 C   0  0  0  0  0  0  0  0  0  0  0  0
    3.6720   -3.7050   -1.1450 C   0  0  0  0  0  0  0  0  0  0  0  0
   -1.6790   -3.4720    0.0130 N   0  0  0  0  0  0  0  0  0  0  0  0
   -2.8390   -3.6370    0.9220 C   0  0  1  0  0  0  0  0  0  0  0  0
   -4.0220   -2.8660    0.3310 C   0  0  0  0  0  0  0  0  0  0  0  0
   -4.6140   -1.9350    1.3930 C   0  0  0  0  0  0  0  0  0  0  0  0
   -6.1100   -1.8740    1.2320 C   0  0  0  0  0  0  0  0  0  0  0  0
   -6.7150   -2.8710    0.8870 O   0  0  0  0  0  0  0  0  0  0  0  0
   -3.1950   -5.1210    1.0350 C   0  0  0  0  0  0  0  0  0  0  0  0
   -2.1350   -5.8170    1.6930 O   0  0  0  0  0  0  0  0  0  0  0  0
    3.8640    2.0450    2.7970 H   0  0  0  0  0  0  0  0  0  0  0  0
    3.9040    0.2910    2.4970 H   0  0  0  0  0  0  0  0  0  0  0  0
    5.8880    3.3770    2.6530 H   0  0  0  0  0  0  0  0  0  0  0  0
    8.3430    3.4030    2.8370 H   0  0  0  0  0  0  0  0  0  0  0  0
    9.6200    1.3140    2.5690 H   0  0  0  0  0  0  0  0  0  0  0  0
    8.4410   -0.8000    2.1190 H   0  0  0  0  0  0  0  0  0  0  0  0
    5.9850   -0.8270    1.9430 H   0  0  0  0  0  0  0  0  0  0  0  0
   -7.7630   -0.7390    1.3390 H   0  0  0  0  0  0  0  0  0  0  0  0
   -6.7000    0.9330    2.7150 H   0  0  0  0  0  0  0  0  0  0  0  0
   -5.1240    0.2660    2.2480 H   0  0  0  0  0  0  0  0  0  0  0  0
   -5.2580    1.1970    0.0600 H   0  0  0  0  0  0  0  0  0  0  0  0
   -7.0130    1.4590    0.1920 H   0  0  0  0  0  0  0  0  0  0  0  0
   -6.7360    3.2700    1.7210 H   0  0  0  0  0  0  0  0  0  0  0  0
   -5.0350    2.8500    2.0330 H   0  0  0  0  0  0  0  0  0  0  0  0
   -5.4750    3.2770   -0.8140 H   0  0  0  0  0  0  0  0  0  0  0  0
   -6.0180    4.6900    0.1190 H   0  0  0  0  0  0  0  0  0  0  0  0
   -3.8340    4.7470    1.2980 H   0  0  0  0  0  0  0  0  0  0  0  0
   -3.2870    3.3480    0.3450 H   0  0  0  0  0  0  0  0  0  0  0  0
   -4.2650    5.1420   -1.5780 H   0  0  0  0  0  0  0  0  0  0  0  0
   -3.4460    6.1910   -0.4010 H   0  0  0  0  0  0  0  0  0  0  0  0
   -2.1500    2.6250   -1.0460 H   0  0  0  0  0  0  0  0  0  0  0  0
    0.0690    1.9060   -3.0980 H   0  0  0  0  0  0  0  0  0  0  0  0
    1.4250    2.9660   -2.6530 H   0  0  0  0  0  0  0  0  0  0  0  0
    0.1840    2.1620   -0.2130 H   0  0  0  0  0  0  0  0  0  0  0  0
    2.8020    1.8400   -1.4620 H   0  0  0  0  0  0  0  0  0  0  0  0
    1.3160   -0.4940    0.2890 H   0  0  0  0  0  0  0  0  0  0  0  0
   -0.1120   -2.1350   -1.7360 H   0  0  0  0  0  0  0  0  0  0  0  0
    1.7520   -2.9040    0.5540 H   0  0  0  0  0  0  0  0  0  0  0  0
    0.9890   -4.0610   -0.5630 H   0  0  0  0  0  0  0  0  0  0  0  0
    2.7950   -1.7570   -1.4230 H   0  0  0  0  0  0  0  0  0  0  0  0
    1.6580   -4.1590   -2.9250 H   0  0  0  0  0  0  0  0  0  0  0  0
    1.1230   -2.4710   -3.1090 H   0  0  0  0  0  0  0  0  0  0  0  0
    2.7250   -3.0970   -4.8950 H   0  0  0  0  0  0  0  0  0  0  0  0
    3.4030   -1.8290   -3.8450 H   0  0  0  0  0  0  0  0  0  0  0  0
    3.9660   -4.8200   -3.6150 H   0  0  0  0  0  0  0  0  0  0  0  0
    5.0760   -3.6040   -4.2910 H   0  0  0  0  0  0  0  0  0  0  0  0
    5.6380   -4.1070   -1.9280 H   0  0  0  0  0  0  0  0  0  0  0  0
    5.1030   -2.4190   -2.1130 H   0  0  0  0  0  0  0  0  0  0  0  0
    4.0360   -3.4800   -0.1420 H   0  0  0  0  0  0  0  0  0  0  0  0
    3.3590   -4.7480   -1.1920 H   0  0  0  0  0  0  0  0  0  0  0  0
   -1.4780   -4.1130   -0.6880 H   0  0  0  0  0  0  0  0  0  0  0  0
   -2.5950   -3.2430    1.9080 H   0  0  0  0  0  0  0  0  0  0  0  0
   -3.6800   -2.2730   -0.5180 H   0  0  0  0  0  0  0  0  0  0  0  0
   -4.7820   -3.5710   -0.0040 H   0  0  0  0  0  0  0  0  0  0  0  0
   -4.3710   -2.3140    2.3850 H   0  0  0  0  0  0  0  0  0  0  0  0
   -4.1870   -0.9400    1.2700 H   0  0  0  0  0  0  0  0  0  0  0  0
   -4.1140   -5.2310    1.6110 H   0  0  0  0  0  0  0  0  0  0  0  0
   -3.3390   -5.5370    0.0380 H   0  0  0  0  0  0  0  0  0  0  0  0
   -2.2930   -6.7650    1.8000 H   0  0  0  0  0  0  0  0  0  0  0  0
 45 46  1  0  0  0  0
 40 45  1  0  0  0  0
 40 41  1  0  0  0  0
 39 40  1  0  0  0  0
 30 39  1  0  0  0  0
 30 31  2  0  0  0  0
 29 30  1  0  0  0  0
 29 32  1  0  0  0  0
 28 29  1  0  0  0  0
 32 33  1  0  0  0  0
 33 38  1  0  0  0  0
 33 34  1  0  0  0  0
 34 35  1  0  0  0  0
 35 36  1  0  0  0  0
 36 37  1  0  0  0  0
 37 38  1  0  0  0  0
 24 28  1  0  0  0  0
 41 42  1  0  0  0  0
 42 43  1  0  0  0  0
 11 43  1  0  0  0  0
 43 44  2  0  0  0  0
 11 12  1  0  0  0  0
 12 13  1  0  0  0  0
 13 14  1  0  0  0  0
 14 15  1  0  0  0  0
 15 16  1  0  0  0  0
 16 17  1  0  0  0  0
 17 18  1  0  0  0  0
 18 19  1  0  0  0  0
 18 27  1  0  0  0  0
 19 20  2  0  0  0  0
 20 26  1  0  0  0  0
 20 21  1  0  0  0  0
 21 22  1  0  0  0  0
 22 24  1  0  0  0  0
 22 23  1  0  0  0  0
  1 23  1  0  0  0  0
  1  2  2  0  0  0  0
  1  3  1  0  0  0  0
  3  4  1  0  0  0  0
  4  5  1  0  0  0  0
  5  6  2  0  0  0  0
  5 10  1  0  0  0  0
  6  7  1  0  0  0  0
  7  8  2  0  0  0  0
  8  9  1  0  0  0  0
  9 10  2  0  0  0  0
 24 25  2  0  0  0  0
 26 27  2  0  0  0  0
 46 95  1  0  0  0  0
 45 93  1  0  0  0  0
 45 94  1  0  0  0  0
 40 88  1  0  0  0  0
 39 87  1  0  0  0  0
 29 73  1  0  0  0  0
 32 74  1  0  0  0  0
 32 75  1  0  0  0  0
 33 76  1  0  0  0  0
 34 78  1  0  0  0  0
 34 77  1  0  0  0  0
 35 80  1  0  0  0  0
 35 79  1  0  0  0  0
 36 82  1  0  0  0  0
 36 81  1  0  0  0  0
 37 84  1  0  0  0  0
 37 83  1  0  0  0  0
 38 85  1  0  0  0  0
 38 86  1  0  0  0  0
 28 72  1  0  0  0  0
 41 89  1  0  0  0  0
 41 90  1  0  0  0  0
 42 91  1  0  0  0  0
 42 92  1  0  0  0  0
 11 54  1  0  0  0  0
 12 55  1  0  0  0  0
 12 56  1  0  0  0  0
 13 57  1  0  0  0  0
 13 58  1  0  0  0  0
 14 59  1  0  0  0  0
 14 60  1  0  0  0  0
 15 61  1  0  0  0  0
 15 62  1  0  0  0  0
 16 63  1  0  0  0  0
 16 64  1  0  0  0  0
 17 65  1  0  0  0  0
 17 66  1  0  0  0  0
 19 67  1  0  0  0  0
 21 68  1  0  0  0  0
 21 69  1  0  0  0  0
 22 70  1  0  0  0  0
 23 71  1  0  0  0  0
  4 47  1  0  0  0  0
  4 48  1  0  0  0  0
  6 49  1  0  0  0  0
  7 50  1  0  0  0  0
  8 51  1  0  0  0  0
  9 52  1  0  0  0  0
 10 53  1  0  0  0  0
M  END
> <OPENEYE_ISO_SMILES>
c1ccc(cc1)COC(=O)N[C@H]2Cc3cn(nn3)CCCCCCNC(=O)CC[C@H](NC(=O)[C@@H](NC2=O)CC4CCCCC4)CO

> <OPENEYE_INCHI>
InChI=1S/C33H49N7O6/c41-22-26-15-16-30(42)34-17-9-1-2-10-18-40-21-27(38-39-40)20-29(37-33(45)46-23-25-13-7-4-8-14-25)32(44)36-28(31(43)35-26)19-24-11-5-3-6-12-24/h4,7-8,13-14,21,24,26,28-29,41H,1-3,5-6,9-12,15-20,22-23H2,(H,34,42)(H,35,43)(H,36,44)(H,37,45)/t26-,28-,29-/m0/s1

> <OPENEYE_INCHIKEY>
ITOVOSDUKDWVAY-ZXRKZBAXSA-N

> <FORMULA>
C33H49N7O6

$$$$
