@<TRIPOS>MOLECULE
/home/pku/3cl/gett_pdb/5SRX/5SRX_mol2/ligand/5SRX_RIK.pdb
 41 44 0 0 0
SMALL
GASTEIGER

@<TRIPOS>ATOM
      1  C18      -46.5120  -29.1040    6.4010 C.ar  201  RIK201      0.1442
      2  C15      -48.7430  -28.7830    3.5390 C.ar  201  RIK201     -0.0491
      3  C14      -50.1320  -28.7850    3.6010 C.ar  201  RIK201     -0.0257
      4  C13      -50.7580  -28.9210    4.8300 C.ar  201  RIK201      0.1254
      5  C12      -50.0360  -29.0520    5.9970 C.ar  201  RIK201     -0.0025
      6  C11      -48.6450  -29.0410    5.9330 C.ar  201  RIK201      0.0515
      7  C10      -47.9840  -28.9140    4.7200 C.ar  201  RIK201      0.0124
      8  C20      -44.2110  -29.1030    6.3240 C.ar  201  RIK201      0.1204
      9  C02      -44.5150  -26.4170   -1.8010 C.2   201  RIK201      0.0418
     10  C03      -43.7540  -25.9700   -0.5470 C.3   201  RIK201     -0.0108
     11  C04      -43.2120  -27.1120    0.3150 C.3   201  RIK201     -0.0200
     12  C05      -44.3840  -27.7750    1.0050 C.3   201  RIK201      0.0747
     13  C06      -44.0460  -28.3480    2.3770 C.3   201  RIK201      0.0399
     14  C08      -45.3470  -28.9000    4.3410 C.ar  201  RIK201      0.1345
     15  C09      -46.5800  -28.9620    5.0280 C.ar  201  RIK201      0.0663
     16  C22      -45.9110  -29.7500    2.0980 C.3   201  RIK201      0.0370
     17  C23      -46.0800  -29.2770    0.6520 C.3   201  RIK201      0.0638
     18  F16      -52.1070  -28.9200    4.8830 F     201  RIK201     -0.2054
     19  N07      -45.3100  -28.7330    2.9030 N.pl3 201  RIK201     -0.3099
     20  N17      -47.7420  -29.1550    6.9050 N.ar  201  RIK201     -0.3389
     21  N19      -45.3270  -29.1760    6.9960 N.ar  201  RIK201     -0.2178
     22  N21      -44.2020  -28.9630    5.0090 N.ar  201  RIK201     -0.2200
     23  O01      -45.7530  -26.6580   -1.7420 O.co2 201  RIK201     -0.5498
     24  O24      -44.8560  -28.7890    0.1380 O.3   201  RIK201     -0.3735
     25  O25      -43.9100  -26.5320   -2.9010 O.co2 201  RIK201     -0.5498
     26 H151      -48.2620  -28.6870    2.5690 H     201  RIK201      0.0625
     27 H141      -50.7440  -28.6980    2.7040 H     201  RIK201      0.0646
     28 H121      -50.5380  -29.1570    6.9550 H     201  RIK201      0.0667
     29 H201      -43.2920  -29.1670    6.8780 H     201  RIK201      0.1048
     30 H031      -44.4170  -25.3570    0.0590 H     201  RIK201      0.0326
     31 H032      -42.9200  -25.3700   -0.8530 H     201  RIK201      0.0326
     32 H042      -42.5390  -26.7290    1.0690 H     201  RIK201      0.0294
     33 H041      -42.6980  -27.8460   -0.2990 H     201  RIK201      0.0294
     34 H051      -45.1740  -27.0430    1.1400 H     201  RIK201      0.0612
     35 H061      -43.5990  -27.5860    3.0000 H     201  RIK201      0.0490
     36 H062      -43.3840  -29.2170    2.3030 H     201  RIK201      0.0490
     37 H221      -45.2870  -30.6290    2.1100 H     201  RIK201      0.0487
     38 H222      -46.8760  -30.0170    2.4850 H     201  RIK201      0.0487
     39 H232      -46.4320  -30.0760    0.0270 H     201  RIK201      0.0575
     40 H231      -46.7900  -28.4510    0.6300 H     201  RIK201      0.0575
     41 H171      -47.9760  -29.2630    7.8730 H     201  RIK201      0.1673
@<TRIPOS>UNITY_ATOM_ATTR
23 1
charge -1
@<TRIPOS>BOND
     1    25     9   ar
     2     9    23   ar
     3     9    10    1
     4    31    10    1
     5    10    30    1
     6    10    11    1
     7    33    11    1
     8    39    17    1
     9    24    17    1
    10    24    12    1
    11    11    12    1
    12    11    32    1
    13    40    17    1
    14    17    16    1
    15    12    34    1
    16    12    13    1
    17    16    37    1
    18    16    38    1
    19    16    19    1
    20    36    13    1
    21    13    19    1
    22    13    35    1
    23    26     2    1
    24    27     3    1
    25    19    14    1
    26     2     3   ar
    27     2     7   ar
    28     3     4   ar
    29    14    22   ar
    30    14    15   ar
    31     7    15   ar
    32     7     6   ar
    33     4    18    1
    34     4     5   ar
    35    22     8   ar
    36    15     1   ar
    37     6     5   ar
    38     6    20   ar
    39     5    28    1
    40     8    29    1
    41     8    21   ar
    42     1    20   ar
    43     1    21   ar
    44    20    41    1
