QYS
  -OEChem-02242320033D

 70 71  0     1  0  0  0  0  0999 V2000
    8.5100    0.7810   -0.7080 C   0  0  0  0  0  0  0  0  0  0  0  0
    8.1600   -0.5590   -1.3580 C   0  0  0  0  0  0  0  0  0  0  0  0
    6.9880   -1.1980   -0.6110 C   0  0  0  0  0  0  0  0  0  0  0  0
    5.7750   -0.2680   -0.6740 C   0  0  0  0  0  0  0  0  0  0  0  0
    4.6030   -0.9070    0.0730 C   0  0  0  0  0  0  0  0  0  0  0  0
    2.2920   -0.5060    0.5150 C   0  0  0  0  0  0  0  0  0  0  0  0
   -0.0940   -0.3020    0.9660 C   0  0  1  0  0  0  0  0  0  0  0  0
   -0.1420   -0.0040    2.4660 C   0  0  0  0  0  0  0  0  0  0  0  0
   -1.4080   -0.6180    3.0670 C   0  0  0  0  0  0  0  0  0  0  0  0
   -1.3400   -2.1420    2.9530 C   0  0  0  0  0  0  0  0  0  0  0  0
   -1.5170   -0.2210    4.5410 C   0  0  0  0  0  0  0  0  0  0  0  0
   -1.2620    0.3630    0.2840 C   0  0  0  0  0  0  0  0  0  0  0  0
   -3.5900    0.3770   -0.4340 C   0  0  1  0  0  0  0  0  0  0  0  0
   -4.6200   -0.7070   -0.7590 C   0  0  0  0  0  0  0  0  0  0  0  0
   -4.0170   -1.7030   -1.7510 C   0  0  1  0  0  0  0  0  0  0  0  0
   -2.8830   -2.4700   -1.1080 C   0  0  0  0  0  0  0  0  0  0  0  0
   -4.7060   -3.9080   -1.1080 C   0  0  0  0  0  0  0  0  0  0  0  0
   -5.0510   -2.7930   -2.1190 C   0  0  0  0  0  0  0  0  0  0  0  0
   -4.2490    1.4710    0.4080 C   0  0  1  0  0  0  0  0  0  0  0  0
    6.1250    1.0720   -0.0230 C   0  0  0  0  0  0  0  0  0  0  0  0
    7.2970    1.7110   -0.7710 C   0  0  0  0  0  0  0  0  0  0  0  0
    8.8680    0.5710    0.6290 F   0  0  0  0  0  0  0  0  0  0  0  0
    9.5820    1.3650   -1.3910 F   0  0  0  0  0  0  0  0  0  0  0  0
    1.1580    0.2140    0.4060 N   0  0  0  0  0  0  0  0  0  0  0  0
   -2.4790   -0.2150    0.3150 N   0  0  0  0  0  0  0  0  0  0  0  0
   -3.2940   -3.7020   -0.7630 N   0  0  0  0  0  0  0  0  0  0  0  0
    3.4190   -0.0810   -0.0860 O   0  0  0  0  0  0  0  0  0  0  0  0
   -1.7640   -2.0360   -0.9300 O   0  0  0  0  0  0  0  0  0  0  0  0
   -3.2600    2.4190    0.8150 O   0  0  0  0  0  0  0  0  0  0  0  0
   -1.1060    1.4180   -0.2940 O   0  0  0  0  0  0  0  0  0  0  0  0
    2.2970   -1.5390    1.1550 O   0  0  0  0  0  0  0  0  0  0  0  0
    7.8820   -0.3960   -2.3990 H   0  0  0  0  0  0  0  0  0  0  0  0
    9.0250   -1.2220   -1.3130 H   0  0  0  0  0  0  0  0  0  0  0  0
    6.7390   -2.1520   -1.0740 H   0  0  0  0  0  0  0  0  0  0  0  0
    7.2670   -1.3610    0.4300 H   0  0  0  0  0  0  0  0  0  0  0  0
    5.4960   -0.1040   -1.7150 H   0  0  0  0  0  0  0  0  0  0  0  0
    4.4110   -1.9000   -0.3330 H   0  0  0  0  0  0  0  0  0  0  0  0
    4.8480   -0.9890    1.1320 H   0  0  0  0  0  0  0  0  0  0  0  0
   -0.1460   -1.3790    0.8080 H   0  0  0  0  0  0  0  0  0  0  0  0
    0.7350   -0.4330    2.9500 H   0  0  0  0  0  0  0  0  0  0  0  0
   -0.1520    1.0750    2.6220 H   0  0  0  0  0  0  0  0  0  0  0  0
   -2.2820   -0.2510    2.5270 H   0  0  0  0  0  0  0  0  0  0  0  0
   -0.5100   -2.5140    3.5520 H   0  0  0  0  0  0  0  0  0  0  0  0
   -2.2730   -2.5750    3.3140 H   0  0  0  0  0  0  0  0  0  0  0  0
   -1.1900   -2.4210    1.9100 H   0  0  0  0  0  0  0  0  0  0  0  0
   -1.5650    0.8650    4.6230 H   0  0  0  0  0  0  0  0  0  0  0  0
   -2.4190   -0.6580    4.9690 H   0  0  0  0  0  0  0  0  0  0  0  0
   -0.6440   -0.5880    5.0810 H   0  0  0  0  0  0  0  0  0  0  0  0
   -3.2140    0.8090   -1.3610 H   0  0  0  0  0  0  0  0  0  0  0  0
   -4.8990   -1.2290    0.1570 H   0  0  0  0  0  0  0  0  0  0  0  0
   -5.5050   -0.2470   -1.1980 H   0  0  0  0  0  0  0  0  0  0  0  0
   -3.6700   -1.1860   -2.6450 H   0  0  0  0  0  0  0  0  0  0  0  0
   -5.3290   -3.8160   -0.2180 H   0  0  0  0  0  0  0  0  0  0  0  0
   -4.8430   -4.8880   -1.5650 H   0  0  0  0  0  0  0  0  0  0  0  0
   -6.0680   -2.4320   -1.9700 H   0  0  0  0  0  0  0  0  0  0  0  0
   -4.9070   -3.1370   -3.1430 H   0  0  0  0  0  0  0  0  0  0  0  0
   -4.7070    1.0230    1.2910 H   0  0  0  0  0  0  0  0  0  0  0  0
    5.2610    1.7350   -0.0690 H   0  0  0  0  0  0  0  0  0  0  0  0
    6.4040    0.9090    1.0180 H   0  0  0  0  0  0  0  0  0  0  0  0
    7.5470    2.6660   -0.3080 H   0  0  0  0  0  0  0  0  0  0  0  0
    7.0190    1.8740   -1.8120 H   0  0  0  0  0  0  0  0  0  0  0  0
    1.1700    1.0730   -0.0440 H   0  0  0  0  0  0  0  0  0  0  0  0
   -2.6190   -1.0220    0.8350 H   0  0  0  0  0  0  0  0  0  0  0  0
   -2.7310   -4.3690   -0.3410 H   0  0  0  0  0  0  0  0  0  0  0  0
   -2.5460    2.0410    1.3460 H   0  0  0  0  0  0  0  0  0  0  0  0
   -5.5220    2.3080   -0.5760 S   0  0  0  0  0  0  0  0  0  0  0  0
   -6.1080    3.3690    0.1660 O   0  0  0  0  0  0  0  0  0  0  0  0
   -5.0710    2.5070   -1.9090 O   0  0  0  0  0  0  0  0  0  0  0  0
   -6.6370    1.2810   -0.7070 O   0  0  0  0  0  0  0  0  0  0  0  0
   -7.3990    1.5900   -1.2160 H   0  0  0  0  0  0  0  0  0  0  0  0
 17 18  1  0  0  0  0
 17 26  1  0  0  0  0
 15 18  1  0  0  0  0
 19 29  1  0  0  0  0
 12 30  2  0  0  0  0
 13 19  1  0  0  0  0
 13 14  1  0  0  0  0
 13 25  1  0  0  0  0
 16 26  1  0  0  0  0
 14 15  1  0  0  0  0
 15 16  1  0  0  0  0
 12 25  1  0  0  0  0
  7 12  1  0  0  0  0
 16 28  2  0  0  0  0
  6 27  1  0  0  0  0
  5 27  1  0  0  0  0
  7  8  1  0  0  0  0
  8  9  1  0  0  0  0
  6 24  1  0  0  0  0
  7 24  1  0  0  0  0
  6 31  2  0  0  0  0
  4  5  1  0  0  0  0
  9 10  1  0  0  0  0
  9 11  1  0  0  0  0
  4 20  1  0  0  0  0
 20 21  1  0  0  0  0
  3  4  1  0  0  0  0
  1 21  1  0  0  0  0
  2  3  1  0  0  0  0
  1 22  1  0  0  0  0
  1  2  1  0  0  0  0
  1 23  1  0  0  0  0
  2 32  1  0  0  0  0
  2 33  1  0  0  0  0
  3 34  1  0  0  0  0
  3 35  1  0  0  0  0
  4 36  1  0  0  0  0
  5 37  1  0  0  0  0
  5 38  1  0  0  0  0
  7 39  1  0  0  0  0
  8 40  1  0  0  0  0
  8 41  1  0  0  0  0
  9 42  1  0  0  0  0
 10 43  1  0  0  0  0
 10 44  1  0  0  0  0
 10 45  1  0  0  0  0
 11 46  1  0  0  0  0
 11 47  1  0  0  0  0
 11 48  1  0  0  0  0
 13 49  1  0  0  0  0
 14 50  1  0  0  0  0
 14 51  1  0  0  0  0
 15 52  1  0  0  0  0
 17 53  1  0  0  0  0
 17 54  1  0  0  0  0
 18 55  1  0  0  0  0
 18 56  1  0  0  0  0
 19 57  1  0  0  0  0
 20 58  1  0  0  0  0
 20 59  1  0  0  0  0
 21 60  1  0  0  0  0
 21 61  1  0  0  0  0
 24 62  1  0  0  0  0
 25 63  1  0  0  0  0
 26 64  1  0  0  0  0
 29 65  1  0  0  0  0
 19 66  1  0  0  0  0
 66 67  2  0  0  0  0
 66 68  2  0  0  0  0
 66 69  1  0  0  0  0
 69 70  1  0  0  0  0
M  END
> <OPENEYE_ISO_SMILES>
CC(C)C[C@@H](C(=O)N[C@@H](C[C@@H]1CCNC1=O)[C@@H](O)S(=O)(=O)O)NC(=O)OCC2CCC(CC2)(F)F

> <OPENEYE_INCHI>
InChI=1S/C21H35F2N3O8S/c1-12(2)9-15(26-20(30)34-11-13-3-6-21(22,23)7-4-13)18(28)25-16(19(29)35(31,32)33)10-14-5-8-24-17(14)27/h12-16,19,29H,3-11H2,1-2H3,(H,24,27)(H,25,28)(H,26,30)(H,31,32,33)/t14-,15-,16-,19-/m0/s1

> <OPENEYE_INCHIKEY>
BHZBRFONZANPNK-FPXQBCRKSA-N

> <FORMULA>
C21H35F2N3O8S

$$$$
