FLC
  -OEChem-02242320023D

 18 17  0     0  0  0  0  0  0999 V2000
   -2.4870    0.3880   -0.0090 C   0  0  0  0  0  0  0  0  0  0  0  0
   -1.2580    1.1060   -0.5030 C   0  0  0  0  0  0  0  0  0  0  0  0
   -0.0080    0.4240    0.0590 C   0  0  0  0  0  0  0  0  0  0  0  0
    0.0290   -1.0110   -0.4000 C   0  0  0  0  0  0  0  0  0  0  0  0
    1.2400    1.1530   -0.4430 C   0  0  0  0  0  0  0  0  0  0  0  0
    2.4710    0.4100    0.0090 C   0  0  0  0  0  0  0  0  0  0  0  0
   -2.3750   -0.5800    0.7250 O   0  0  0  0  0  0  0  0  0  0  0  0
   -3.5940    0.7750   -0.3420 O   0  5  0  0  0  0  0  0  0  0  0  0
    0.0270   -1.9550    0.4580 O   0  0  0  0  0  0  0  0  0  0  0  0
    0.0640   -1.2820   -1.6450 O   0  5  0  0  0  0  0  0  0  0  0  0
    2.3600   -0.6090    0.6710 O   0  0  0  0  0  0  0  0  0  0  0  0
    3.5780    0.8270   -0.2880 O   0  5  0  0  0  0  0  0  0  0  0  0
   -0.0440    0.4670    1.4870 O   0  0  0  0  0  0  0  0  0  0  0  0
   -1.2850    2.1440   -0.1710 H   0  0  0  0  0  0  0  0  0  0  0  0
   -1.2310    1.0730   -1.5920 H   0  0  0  0  0  0  0  0  0  0  0  0
    1.2210    1.1970   -1.5320 H   0  0  0  0  0  0  0  0  0  0  0  0
    1.2570    2.1650   -0.0380 H   0  0  0  0  0  0  0  0  0  0  0  0
   -0.0670    1.4000    1.7380 H   0  0  0  0  0  0  0  0  0  0  0  0
  1  2  1  0  0  0  0
  1  7  2  0  0  0  0
  1  8  1  0  0  0  0
  2  3  1  0  0  0  0
  2 14  1  0  0  0  0
  2 15  1  0  0  0  0
  3  4  1  0  0  0  0
  3  5  1  0  0  0  0
  3 13  1  0  0  0  0
  4  9  2  0  0  0  0
  4 10  1  0  0  0  0
  5  6  1  0  0  0  0
  5 16  1  0  0  0  0
  5 17  1  0  0  0  0
  6 11  2  0  0  0  0
  6 12  1  0  0  0  0
 13 18  1  0  0  0  0
M  CHG  3   8  -1  10  -1  12  -1
M  END
> <OPENEYE_ISO_SMILES>
C(C(=O)[O-])C(CC(=O)[O-])(C(=O)[O-])O

> <OPENEYE_INCHI>
InChI=1S/C6H8O7/c7-3(8)1-6(13,5(11)12)2-4(9)10/h13H,1-2H2,(H,7,8)(H,9,10)(H,11,12)/p-3

> <OPENEYE_INCHIKEY>
KRKNYBCHXYNGOX-UHFFFAOYSA-K

> <FORMULA>
C6H5O7-3

$$$$
