@<TRIPOS>MOLECULE
/home/pku/3cl/gett_pdb/5RSI/5RSI_mol2/ligand/5RSI_W5D.pdb
 34 37 0 0 0
SMALL
GASTEIGER

@<TRIPOS>ATOM
      1  C10      -45.1230  -29.4290    4.1840 C.3   201  W5D201      0.1878
      2  C17      -47.7360  -29.1280    4.3860 C.ar  201  W5D201     -0.0355
      3  C01      -46.6490  -30.8290   -0.1410 C.3   201  W5D201      0.0520
      4  C03      -46.8130  -29.2280    1.5240 C.3   201  W5D201      0.0636
      5  C04      -45.6010  -29.3760    1.4480 C.3   201  W5D201      0.0412
      6  C05      -45.4010  -30.5320    0.2170 C.3   201  W5D201      0.0003
      7  C06      -44.5130  -31.7030    0.5280 C.3   201  W5D201     -0.0455
      8  C07      -45.0060  -32.1050    1.7710 C.3   201  W5D201     -0.0397
      9  C08      -44.1580  -31.0300    2.7320 C.3   201  W5D201      0.0018
     10  C12      -44.1560  -29.4150    6.2390 C.2   201  W5D201      0.1048
     11  C14      -46.3820  -29.1510    6.1230 C.ar  201  W5D201      0.1286
     12  C16      -48.4400  -28.9750    5.5000 C.ar  201  W5D201      0.0038
     13  C18      -46.3870  -29.2940    4.7690 C.ar  201  W5D201      0.0397
     14  N09      -44.8690  -29.6450    2.7960 N.3   201  W5D201     -0.2660
     15  N11      -44.0550  -29.4830    4.9590 N.2   201  W5D201     -0.2431
     16  N13      -45.2650  -29.2050    6.8260 N.pl3 201  W5D201     -0.1859
     17  N15      -47.6300  -29.0200    6.5290 N.ar  201  W5D201     -0.3479
     18  O02      -47.2340  -29.4610   -0.0180 O.3   201  W5D201     -0.3779
     19 H171      -48.0930  -29.1890    3.5350 H     201  W5D201      0.0637
     20 H011      -47.1090  -31.4490    0.4400 H     201  W5D201      0.0563
     21 H012      -46.6770  -31.1290   -1.0630 H     201  W5D201      0.0563
     22 H031      -47.0550  -28.3420    1.8370 H     201  W5D201      0.0575
     23 H032      -47.1960  -29.9360    2.0570 H     201  W5D201      0.0575
     24 H041      -45.2410  -28.5420    1.1080 H     201  W5D201      0.0489
     25 H051      -44.9960  -30.0720   -0.5350 H     201  W5D201      0.0339
     26 H061      -43.5810  -31.4420    0.5520 H     201  W5D201      0.0270
     27 H062      -44.6520  -32.4060   -0.1260 H     201  W5D201      0.0270
     28 H071      -44.7270  -33.0140    1.9630 H     201  W5D201      0.0278
     29 H072      -45.9540  -32.0030    1.9090 H     201  W5D201      0.0278
     30 H081      -43.2480  -30.9110    2.4200 H     201  W5D201      0.0427
     31 H082      -44.1280  -31.4150    3.6210 H     201  W5D201      0.0427
     32 H121      -43.3780  -29.4340    6.7490 H     201  W5D201      0.1015
     33 H161      -49.3640  -28.8780    5.5450 H     201  W5D201      0.0807
     34 H151      -47.8680  -28.8890    7.3450 H     201  W5D201      0.1666
@<TRIPOS>BOND
     1    21     3    1
     2    25     6    1
     3     3    18    1
     4     3     6    1
     5     3    20    1
     6    27     7    1
     7    18     4    1
     8     6     7    1
     9     6     5    1
    10     7    26    1
    11     7     8    1
    12    24     5    1
    13     5     4    1
    14     5    14    1
    15     4    22    1
    16     4    23    1
    17     8    29    1
    18     8    28    1
    19     8     9    1
    20    30     9    1
    21     9    14    1
    22     9    31    1
    23    14     1    1
    24    19     2    1
    25     1    13    1
    26     1    15    1
    27     2    13   ar
    28     2    12   ar
    29    13    11   ar
    30    15    10    2
    31    12    33    1
    32    12    17   ar
    33    11    17   ar
    34    11    16    1
    35    10    32    1
    36    10    16    1
    37    17    34    1
