V3D
  -OEChem-02242320043D

 79 82  0     1  0  0  0  0  0999 V2000
   11.2710    0.5900    0.1320 C   0  0  0  0  0  0  0  0  0  0  0  0
    9.8530    0.6980    0.2770 O   0  0  0  0  0  0  0  0  0  0  0  0
    9.0890   -0.0610   -0.5490 C   0  0  0  0  0  0  0  0  0  0  0  0
    9.6840   -0.8910   -1.4780 C   0  0  0  0  0  0  0  0  0  0  0  0
    8.9080   -1.6700   -2.3240 C   0  0  0  0  0  0  0  0  0  0  0  0
    7.5330   -1.6280   -2.2540 C   0  0  0  0  0  0  0  0  0  0  0  0
    6.9060   -0.8000   -1.3270 C   0  0  0  0  0  0  0  0  0  0  0  0
    5.5860   -0.5530   -1.0300 N   0  0  0  0  0  0  0  0  0  0  0  0
    5.5270    0.3730   -0.0050 C   0  0  0  0  0  0  0  0  0  0  0  0
    6.7910    0.7190    0.3550 C   0  0  0  0  0  0  0  0  0  0  0  0
    7.6870   -0.0120   -0.4600 C   0  0  0  0  0  0  0  0  0  0  0  0
    4.2950    0.8990    0.5990 C   0  0  0  0  0  0  0  0  0  0  0  0
    4.3590    1.7140    1.4990 O   0  0  0  0  0  0  0  0  0  0  0  0
    3.0940    0.4770    0.1550 N   0  0  0  0  0  0  0  0  0  0  0  0
    1.8660    1.0020    0.7570 C   0  0  1  0  0  0  0  0  0  0  0  0
    1.4890    2.3210    0.0800 C   0  0  0  0  0  0  0  0  0  0  0  0
    2.5630    3.3700    0.3740 C   0  0  0  0  0  0  0  0  0  0  0  0
    2.2520    4.6510   -0.4040 C   0  0  0  0  0  0  0  0  0  0  0  0
    2.5820    3.6750    1.8730 C   0  0  0  0  0  0  0  0  0  0  0  0
    0.7500    0.0060    0.5710 C   0  0  0  0  0  0  0  0  0  0  0  0
    0.9610   -1.0390   -0.0070 O   0  0  0  0  0  0  0  0  0  0  0  0
   -0.4810    0.2760    1.0470 N   0  0  0  0  0  0  0  0  0  0  0  0
   -1.5920   -0.6380    0.7680 C   0  0  1  0  0  0  0  0  0  0  0  0
   -1.6490   -1.7170    1.8510 C   0  0  0  0  0  0  0  0  0  0  0  0
   -2.6760   -2.7810    1.4570 C   0  0  2  0  0  0  0  0  0  0  0  0
   -2.8150   -3.8390    2.5760 C   0  0  0  0  0  0  0  0  0  0  0  0
   -3.0200   -5.1340    1.7610 C   0  0  0  0  0  0  0  0  0  0  0  0
   -2.3900   -4.8820    0.4600 N   0  0  0  0  0  0  0  0  0  0  0  0
   -2.1900   -3.5680    0.2610 C   0  0  0  0  0  0  0  0  0  0  0  0
   -1.6920   -3.0840   -0.7340 O   0  0  0  0  0  0  0  0  0  0  0  0
   -2.8860    0.1330    0.7580 C   0  0  0  0  0  0  0  0  0  0  0  0
   -3.0260    1.0880    1.4840 O   0  0  0  0  0  0  0  0  0  0  0  0
   -4.0060   -0.2870   -0.1590 C   0  0  0  0  0  0  0  0  0  0  0  0
   11.5770   -0.4400    0.3150 H   0  0  0  0  0  0  0  0  0  0  0  0
   11.5560    0.8800   -0.8790 H   0  0  0  0  0  0  0  0  0  0  0  0
   11.7600    1.2470    0.8510 H   0  0  0  0  0  0  0  0  0  0  0  0
   10.7610   -0.9350   -1.5460 H   0  0  0  0  0  0  0  0  0  0  0  0
    9.3860   -2.3150   -3.0460 H   0  0  0  0  0  0  0  0  0  0  0  0
    6.9400   -2.2390   -2.9190 H   0  0  0  0  0  0  0  0  0  0  0  0
    4.8230   -0.9610   -1.4680 H   0  0  0  0  0  0  0  0  0  0  0  0
    7.0630    1.4220    1.1280 H   0  0  0  0  0  0  0  0  0  0  0  0
    3.0430   -0.1730   -0.5630 H   0  0  0  0  0  0  0  0  0  0  0  0
    2.0270    1.1730    1.8210 H   0  0  0  0  0  0  0  0  0  0  0  0
    1.4150    2.1690   -0.9970 H   0  0  0  0  0  0  0  0  0  0  0  0
    0.5300    2.6660    0.4650 H   0  0  0  0  0  0  0  0  0  0  0  0
    3.5380    2.9880    0.0690 H   0  0  0  0  0  0  0  0  0  0  0  0
    1.2780    5.0330   -0.0990 H   0  0  0  0  0  0  0  0  0  0  0  0
    3.0180    5.3980   -0.1940 H   0  0  0  0  0  0  0  0  0  0  0  0
    2.2390    4.4330   -1.4720 H   0  0  0  0  0  0  0  0  0  0  0  0
    2.8040    2.7630    2.4270 H   0  0  0  0  0  0  0  0  0  0  0  0
    3.3470    4.4220    2.0820 H   0  0  0  0  0  0  0  0  0  0  0  0
    1.6080    4.0580    2.1780 H   0  0  0  0  0  0  0  0  0  0  0  0
   -0.6320    1.0760    1.5750 H   0  0  0  0  0  0  0  0  0  0  0  0
   -1.4400   -1.1070   -0.2040 H   0  0  0  0  0  0  0  0  0  0  0  0
   -0.6680   -2.1800    1.9550 H   0  0  0  0  0  0  0  0  0  0  0  0
   -1.9400   -1.2650    2.7990 H   0  0  0  0  0  0  0  0  0  0  0  0
   -3.6400   -2.3190    1.2470 H   0  0  0  0  0  0  0  0  0  0  0  0
   -1.9060   -3.8950    3.1760 H   0  0  0  0  0  0  0  0  0  0  0  0
   -3.6810   -3.6310    3.2040 H   0  0  0  0  0  0  0  0  0  0  0  0
   -2.5360   -5.9740    2.2590 H   0  0  0  0  0  0  0  0  0  0  0  0
   -4.0840   -5.3350    1.6330 H   0  0  0  0  0  0  0  0  0  0  0  0
   -2.1490   -5.5750   -0.1750 H   0  0  0  0  0  0  0  0  0  0  0  0
   -3.6800   -0.1990   -1.1950 H   0  0  0  0  0  0  0  0  0  0  0  0
   -4.2790   -1.3210    0.0500 H   0  0  0  0  0  0  0  0  0  0  0  0
   -5.1580    0.5710    0.0590 O   0  0  0  0  0  0  0  0  0  0  0  0
   -6.2520    0.3260   -0.6870 C   0  0  0  0  0  0  0  0  0  0  0  0
   -7.4610    1.1580   -0.5190 C   0  0  0  0  0  0  0  0  0  0  0  0
   -7.4740    2.1970    0.4100 C   0  0  0  0  0  0  0  0  0  0  0  0
   -8.6070    2.9720    0.5630 C   0  0  0  0  0  0  0  0  0  0  0  0
   -9.7340    2.7250   -0.2020 C   0  0  0  0  0  0  0  0  0  0  0  0
   -9.7410    1.7000   -1.1280 C   0  0  0  0  0  0  0  0  0  0  0  0
   -8.6060    0.9110   -1.3010 C   0  0  0  0  0  0  0  0  0  0  0  0
   -6.2450   -0.5780   -1.4980 O   0  0  0  0  0  0  0  0  0  0  0  0
   -8.6080   -0.1530   -2.2600 C   0  0  0  0  0  0  0  0  0  0  0  0
   -8.6090   -0.9970   -3.0210 N   0  0  0  0  0  0  0  0  0  0  0  0
   -6.5990    2.3950    1.0110 H   0  0  0  0  0  0  0  0  0  0  0  0
   -8.6140    3.7760    1.2840 H   0  0  0  0  0  0  0  0  0  0  0  0
  -10.6150    3.3370   -0.0730 H   0  0  0  0  0  0  0  0  0  0  0  0
  -10.6240    1.5140   -1.7210 H   0  0  0  0  0  0  0  0  0  0  0  0
  5  6  2  0  0  0  0
  6  7  1  0  0  0  0
 29 30  2  0  0  0  0
  4  5  1  0  0  0  0
  7  8  1  0  0  0  0
  8  9  1  0  0  0  0
  7 11  2  0  0  0  0
 28 29  1  0  0  0  0
 25 29  1  0  0  0  0
 27 28  1  0  0  0  0
 12 13  2  0  0  0  0
  3  4  2  0  0  0  0
  9 12  1  0  0  0  0
  9 10  2  0  0  0  0
  3 11  1  0  0  0  0
 10 11  1  0  0  0  0
 12 14  1  0  0  0  0
  2  3  1  0  0  0  0
 24 25  1  0  0  0  0
 25 26  1  0  0  0  0
 26 27  1  0  0  0  0
 23 24  1  0  0  0  0
 17 18  1  0  0  0  0
 14 15  1  0  0  0  0
  1  2  1  0  0  0  0
 15 20  1  0  0  0  0
 15 16  1  0  0  0  0
 20 22  1  0  0  0  0
 22 23  1  0  0  0  0
 16 17  1  0  0  0  0
 17 19  1  0  0  0  0
 20 21  2  0  0  0  0
 23 31  1  0  0  0  0
 31 32  2  0  0  0  0
 31 33  1  0  0  0  0
  1 34  1  0  0  0  0
  1 35  1  0  0  0  0
  1 36  1  0  0  0  0
  4 37  1  0  0  0  0
  5 38  1  0  0  0  0
  6 39  1  0  0  0  0
  8 40  1  0  0  0  0
 10 41  1  0  0  0  0
 14 42  1  0  0  0  0
 15 43  1  0  0  0  0
 16 44  1  0  0  0  0
 16 45  1  0  0  0  0
 17 46  1  0  0  0  0
 18 47  1  0  0  0  0
 18 48  1  0  0  0  0
 18 49  1  0  0  0  0
 19 50  1  0  0  0  0
 19 51  1  0  0  0  0
 19 52  1  0  0  0  0
 22 53  1  0  0  0  0
 23 54  1  0  0  0  0
 24 55  1  0  0  0  0
 24 56  1  0  0  0  0
 25 57  1  0  0  0  0
 26 58  1  0  0  0  0
 26 59  1  0  0  0  0
 27 60  1  0  0  0  0
 27 61  1  0  0  0  0
 28 62  1  0  0  0  0
 33 63  1  0  0  0  0
 33 64  1  0  0  0  0
 33 65  1  0  0  0  0
 65 66  1  0  0  0  0
 66 67  1  0  0  0  0
 67 68  1  0  0  0  0
 68 69  2  0  0  0  0
 69 70  1  0  0  0  0
 70 71  2  0  0  0  0
 71 72  1  0  0  0  0
 67 72  2  0  0  0  0
 66 73  2  0  0  0  0
 72 74  1  0  0  0  0
 74 75  3  0  0  0  0
 68 76  1  0  0  0  0
 69 77  1  0  0  0  0
 70 78  1  0  0  0  0
 71 79  1  0  0  0  0
M  END
> <OPENEYE_ISO_SMILES>
CC(C)C[C@@H](C(=O)N[C@@H](C[C@@H]1CCNC1=O)C(=O)COC(=O)c2ccccc2C#N)NC(=O)c3cc4c([nH]3)cccc4OC

> <OPENEYE_INCHI>
InChI=1S/C32H35N5O7/c1-18(2)13-25(37-31(41)26-15-22-23(35-26)9-6-10-28(22)43-3)30(40)36-24(14-19-11-12-34-29(19)39)27(38)17-44-32(42)21-8-5-4-7-20(21)16-33/h4-10,15,18-19,24-25,35H,11-14,17H2,1-3H3,(H,34,39)(H,36,40)(H,37,41)/t19-,24-,25-/m0/s1

> <OPENEYE_INCHIKEY>
QDDDUZBEUKGROG-LQGLAIQGSA-N

> <FORMULA>
C32H35N5O7

$$$$
