T0D
  -OEChem-02242320043D

 78 79  0     1  0  0  0  0  0999 V2000
    7.7280    0.1860   -5.0850 C   0  0  0  0  0  0  0  0  0  0  0  0
    8.6840   -1.0120   -4.8430 C   0  0  0  0  0  0  0  0  0  0  0  0
    8.4100   -1.6420   -3.3710 C   0  0  0  0  0  0  0  0  0  0  0  0
    8.5770   -3.8740   -2.4090 C   0  0  0  0  0  0  0  0  0  0  0  0
    8.9470   -5.9500   -1.0340 C   0  0  1  0  0  0  0  0  0  0  0  0
   10.1170   -6.9960   -0.6880 C   0  0  0  0  0  0  0  0  0  0  0  0
   10.5820   -7.7390   -1.9570 C   0  0  0  0  0  0  0  0  0  0  0  0
   12.0390   -8.1940   -1.8000 C   0  0  0  0  0  0  0  0  0  0  0  0
    9.6650   -8.9440   -2.1970 C   0  0  0  0  0  0  0  0  0  0  0  0
    8.1480   -5.5680    0.2880 C   0  0  0  0  0  0  0  0  0  0  0  0
    6.2140   -5.9000    1.9660 C   0  0  1  0  0  0  0  0  0  0  0  0
    4.9200   -5.0910    1.7150 C   0  0  0  0  0  0  0  0  0  0  0  0
    5.1870   -3.7390    0.9650 C   0  0  1  0  0  0  0  0  0  0  0  0
    3.8820   -2.9740    0.7220 C   0  0  0  0  0  0  0  0  0  0  0  0
    5.4150   -1.3060    1.4220 C   0  0  0  0  0  0  0  0  0  0  0  0
    6.0100   -2.7330    1.7770 C   0  0  0  0  0  0  0  0  0  0  0  0
    5.7910   -7.1670    2.7340 C   0  0  2  0  0  0  0  0  0  0  0  0
   10.1430   -0.4960   -4.8790 C   0  0  0  0  0  0  0  0  0  0  0  0
    8.5020   -2.1210   -5.9590 C   0  0  0  0  0  0  0  0  0  0  0  0
    7.2210   -2.6110   -6.2440 C   0  0  0  0  0  0  0  0  0  0  0  0
    7.0290   -3.5800   -7.2380 C   0  0  0  0  0  0  0  0  0  0  0  0
    8.0850   -4.1080   -7.9870 C   0  0  0  0  0  0  0  0  0  0  0  0
    9.3850   -3.6270   -7.7110 C   0  0  0  0  0  0  0  0  0  0  0  0
    9.5930   -2.6390   -6.7070 C   0  0  0  0  0  0  0  0  0  0  0  0
    9.4610   -4.7270   -1.6930 N   0  0  0  0  0  0  0  0  0  0  0  0
    6.9550   -6.2270    0.7280 N   0  0  0  0  0  0  0  0  0  0  0  0
    4.0080   -1.5570    0.9680 N   0  0  0  0  0  0  0  0  0  0  0  0
    9.0590   -2.9290   -3.3140 O   0  0  0  0  0  0  0  0  0  0  0  0
    2.8200   -3.4960    0.3340 O   0  0  0  0  0  0  0  0  0  0  0  0
    6.9230   -7.9530    3.0320 O   0  0  0  0  0  0  0  0  0  0  0  0
    8.6200   -4.6280    0.9860 O   0  0  0  0  0  0  0  0  0  0  0  0
    7.3540   -3.9840   -2.2740 O   0  0  0  0  0  0  0  0  0  0  0  0
    5.3470   -4.1600   -7.5400 Cl  0  0  0  0  0  0  0  0  0  0  0  0
    4.9720   -8.3620    1.6860 S   0  0  0  0  0  0  0  0  0  0  0  0
    7.8760    0.9390   -4.2970 H   0  0  0  0  0  0  0  0  0  0  0  0
    8.8250   -0.9790   -2.5970 H   0  0  0  0  0  0  0  0  0  0  0  0
    8.2440   -6.4540   -1.7140 H   0  0  0  0  0  0  0  0  0  0  0  0
    9.7410   -7.7290    0.0410 H   0  0  0  0  0  0  0  0  0  0  0  0
    5.6860   -3.9440    0.0060 H   0  0  0  0  0  0  0  0  0  0  0  0
    6.0000   -0.8350    0.6180 H   0  0  0  0  0  0  0  0  0  0  0  0
    5.4220   -0.6560    2.3090 H   0  0  0  0  0  0  0  0  0  0  0  0
    5.9080   -2.9340    2.8540 H   0  0  0  0  0  0  0  0  0  0  0  0
    7.0710   -2.7880    1.4930 H   0  0  0  0  0  0  0  0  0  0  0  0
    5.1480   -6.9410    3.5970 H   0  0  0  0  0  0  0  0  0  0  0  0
   10.2790    0.2750   -4.1070 H   0  0  0  0  0  0  0  0  0  0  0  0
   10.8320   -1.3320   -4.6880 H   0  0  0  0  0  0  0  0  0  0  0  0
   10.3550   -0.0650   -5.8690 H   0  0  0  0  0  0  0  0  0  0  0  0
    6.3720   -2.2380   -5.6910 H   0  0  0  0  0  0  0  0  0  0  0  0
    7.9140   -4.8550   -8.7480 H   0  0  0  0  0  0  0  0  0  0  0  0
   10.2280   -4.0120   -8.2660 H   0  0  0  0  0  0  0  0  0  0  0  0
   10.5920   -2.2790   -6.5120 H   0  0  0  0  0  0  0  0  0  0  0  0
   10.4330   -4.5000   -1.6340 H   0  0  0  0  0  0  0  0  0  0  0  0
    6.5960   -6.9640    0.1550 H   0  0  0  0  0  0  0  0  0  0  0  0
    3.2900   -0.8700    0.8560 H   0  0  0  0  0  0  0  0  0  0  0  0
    0.0000    0.0000    0.0000 O   0  0  0  0  0  0  0  0  0  0  0  0
    0.0000    0.0000    0.0000 O   0  0  0  0  0  0  0  0  0  0  0  0
    0.0000    0.0000    0.0000 O   0  0  0  0  0  0  0  0  0  0  0  0
    0.0000    0.0000    0.0000 H   0  0  0  0  0  0  0  0  0  0  0  0
    0.0000    0.0000    0.0000 C   0  0  0  0  0  0  0  0  0  0  0  0
    0.0000    0.0000    0.0000 C   0  0  0  0  0  0  0  0  0  0  0  0
    0.0000    0.0000    0.0000 O   0  0  0  0  0  0  0  0  0  0  0  0
    7.9440    0.6350   -6.0660 H   0  0  0  0  0  0  0  0  0  0  0  0
    6.6860   -0.1660   -5.0640 H   0  0  0  0  0  0  0  0  0  0  0  0
    7.3280   -1.7610   -3.2100 H   0  0  0  0  0  0  0  0  0  0  0  0
   10.9700   -6.4530   -0.2560 H   0  0  0  0  0  0  0  0  0  0  0  0
   10.5100   -7.0560   -2.8170 H   0  0  0  0  0  0  0  0  0  0  0  0
   12.6810   -7.3170   -1.6290 H   0  0  0  0  0  0  0  0  0  0  0  0
   12.1190   -8.8790   -0.9430 H   0  0  0  0  0  0  0  0  0  0  0  0
   12.3620   -8.7120   -2.7150 H   0  0  0  0  0  0  0  0  0  0  0  0
    8.6260   -8.5990   -2.3070 H   0  0  0  0  0  0  0  0  0  0  0  0
    9.9770   -9.4650   -3.1140 H   0  0  0  0  0  0  0  0  0  0  0  0
    9.7340   -9.6330   -1.3420 H   0  0  0  0  0  0  0  0  0  0  0  0
    6.8650   -5.3040    2.6230 H   0  0  0  0  0  0  0  0  0  0  0  0
    4.4500   -4.8690    2.6850 H   0  0  0  0  0  0  0  0  0  0  0  0
    4.2360   -5.7010    1.1070 H   0  0  0  0  0  0  0  0  0  0  0  0
    0.0000    0.0000    0.0000 H   0  0  0  0  0  0  0  0  0  0  0  0
    0.0000    0.0000    0.0000 H   0  0  0  0  0  0  0  0  0  0  0  0
    0.0000    0.0000    0.0000 H   0  0  0  0  0  0  0  0  0  0  0  0
 22 23  2  0  0  0  0
 21 22  1  0  0  0  0
 23 24  1  0  0  0  0
 21 33  1  0  0  0  0
 20 21  2  0  0  0  0
 19 24  2  0  0  0  0
 19 20  1  0  0  0  0
  2 19  1  0  0  0  0
  1  2  1  0  0  0  0
  2 18  1  0  0  0  0
  2  3  1  0  0  0  0
  3 28  1  0  0  0  0
  4 28  1  0  0  0  0
  4 32  2  0  0  0  0
  4 25  1  0  0  0  0
  7  9  1  0  0  0  0
  7  8  1  0  0  0  0
  6  7  1  0  0  0  0
  5 25  1  0  0  0  0
  5  6  1  0  0  0  0
  5 10  1  0  0  0  0
 10 26  1  0  0  0  0
 10 31  2  0  0  0  0
 14 29  2  0  0  0  0
 13 14  1  0  0  0  0
 14 27  1  0  0  0  0
 11 26  1  0  0  0  0
 12 13  1  0  0  0  0
 13 16  1  0  0  0  0
 15 27  1  0  0  0  0
 15 16  1  0  0  0  0
 11 12  1  0  0  0  0
 11 17  1  0  0  0  0
 17 30  1  0  0  0  0
 17 34  1  0  0  0  0
  1 35  1  0  0  0  0
  3 36  1  0  0  0  0
  5 37  1  0  0  0  0
  6 38  1  0  0  0  0
 13 39  1  0  0  0  0
 15 40  1  0  0  0  0
 15 41  1  0  0  0  0
 16 42  1  0  0  0  0
 16 43  1  0  0  0  0
 17 44  1  0  0  0  0
 18 45  1  0  0  0  0
 18 46  1  0  0  0  0
 18 47  1  0  0  0  0
 20 48  1  0  0  0  0
 22 49  1  0  0  0  0
 23 50  1  0  0  0  0
 24 51  1  0  0  0  0
 25 52  1  0  0  0  0
 26 53  1  0  0  0  0
 27 54  1  0  0  0  0
 34 55  2  0  0  0  0
 34 56  2  0  0  0  0
 34 57  1  0  0  0  0
 57 58  1  0  0  0  0
 30 59  1  0  0  0  0
 59 60  1  0  0  0  0
 59 61  2  0  0  0  0
  1 62  1  0  0  0  0
  1 63  1  0  0  0  0
  3 64  1  0  0  0  0
  6 65  1  0  0  0  0
  7 66  1  0  0  0  0
  8 67  1  0  0  0  0
  8 68  1  0  0  0  0
  8 69  1  0  0  0  0
  9 70  1  0  0  0  0
  9 71  1  0  0  0  0
  9 72  1  0  0  0  0
 11 73  1  0  0  0  0
 12 74  1  0  0  0  0
 12 75  1  0  0  0  0
 60 76  1  0  0  0  0
 60 77  1  0  0  0  0
 60 78  1  0  0  0  0
M  END
> <OPENEYE_ISO_SMILES>
CC(C)C[C@@H](C(=O)N[C@@H](C[C@@H]1CCNC1=O)[C@H](OC(=O)C)S(=O)(=O)O)NC(=O)OCC(C)(C)c2cccc(c2)Cl

> <OPENEYE_INCHI>
InChI=1S/C26H38ClN3O9S/c1-15(2)11-20(30-25(34)38-14-26(4,5)18-7-6-8-19(27)13-18)23(33)29-21(12-17-9-10-28-22(17)32)24(39-16(3)31)40(35,36)37/h6-8,13,15,17,20-21,24H,9-12,14H2,1-5H3,(H,28,32)(H,29,33)(H,30,34)(H,35,36,37)/t17-,20-,21-,24+/m0/s1

> <OPENEYE_INCHIKEY>
VMQGICNJRCGQME-COFNMNJVSA-N

> <FORMULA>
C26H38ClN3O9S

$$$$
