@<TRIPOS>MOLECULE
/home/pku/3cl/gett_pdb/8E6B/8E6B_mol2/ligand/8E6B_URR.pdb
 34 35 0 0 0
SMALL
GASTEIGER

@<TRIPOS>ATOM
      1  C11        7.4420  -11.7870    0.6020 C.2   401  URR401      0.2410
      2  C12        8.2620  -10.1360   -0.8220 C.3   401  URR401      0.1156
      3  C13        7.3980  -11.0660   -1.6670 C.3   401  URR401      0.0326
      4  C5        -0.6420  -12.6220   -1.9280 C.3   401  URR401      0.0001
      5  C10        6.5890  -11.8570   -0.6490 C.3   401  URR401      0.0818
      6  C1         2.5740   -9.1660   -1.2800 C.2   401  URR401      0.4215
      7  C2         2.1680  -11.3100   -2.3410 C.3   401  URR401      0.1761
      8  C3         1.2520  -11.9000   -3.4140 C.3   401  URR401      0.0312
      9  C4        -0.2420  -11.7670   -3.1200 C.3   401  URR401      0.0022
     10  C6        -1.0680  -12.1360   -4.3410 C.3   401  URR401      0.0001
     11  C7         3.6320  -11.6710   -2.5980 C.2   401  URR401      0.2614
     12  C8         5.4000  -13.3630   -2.3180 C.3   401  URR401      0.1287
     13  C14        5.3050  -14.7890   -2.8310 C.3   401  URR401      0.2036
     14  C9         6.2400  -13.2920   -1.0420 C.3   401  URR401      0.0335
     15  C15        2.5470   -6.9680   -0.3640 C.3   401  URR401      0.2227
     16  C16        1.1960   -6.3150   -0.0470 C.3   401  URR401      0.1130
     17  O3         6.5980  -15.3050   -3.1040 O.3   401  URR401     -0.2185
     18  O1         3.1520   -9.6480   -0.3290 O.2   401  URR401     -0.2246
     19  N1         1.9830   -9.8730   -2.2570 N.am  401  URR401     -0.1611
     20  N2         4.0630  -12.8210   -2.0750 N.am  401  URR401     -0.2030
     21  N3         8.3930  -10.8760    0.4280 N.am  401  URR401     -0.2054
     22  O2         7.2640  -12.4550    1.6250 O.2   401  URR401     -0.2734
     23  O4         4.3620  -10.9060   -3.2230 O.2   401  URR401     -0.2715
     24  O5         2.3990   -7.8540   -1.5040 O.3   401  URR401     -0.4325
     25  C17        0.1490   -7.4010    0.2300 C.3   401  URR401      0.0176
     26  C18        0.7720   -5.4060   -1.2060 C.3   401  URR401      0.0176
     27  S1         1.3360   -5.2960    1.5010 S.O   401  URR401      0.0666
     28  C19        2.4410   -3.9600    1.0280 C.ar  401  URR401      0.0562
     29  C20        3.8080   -4.1510    1.0670 C.ar  401  URR401      0.0086
     30  C21        4.6560   -3.1150    0.7050 C.ar  401  URR401      0.0006
     31  C22        4.1400   -1.8990    0.3170 C.ar  401  URR401      0.0000
     32  C23        2.7760   -1.7080    0.2900 C.ar  401  URR401      0.0006
     33  C24        1.9200   -2.7380    0.6500 C.ar  401  URR401      0.0086
     34  O6        -0.0180   -4.6830    1.7160 O.2   401  URR401     -0.2514
@<TRIPOS>BOND
     1    10     9    1
     2     8     9    1
     3     8     7    1
     4    23    11    2
     5     9     4    1
     6    17    13    1
     7    13    12    1
     8    11     7    1
     9    11    20   am
    10     7    19    1
    11    12    20    1
    12    12    14    1
    13    19     6   am
    14     3     2    1
    15     3     5    1
    16    24     6    1
    17    24    15    1
    18     6    18    2
    19    26    16    1
    20    14     5    1
    21     2    21    1
    22     5     1    1
    23    15    16    1
    24    16    25    1
    25    16    27    1
    26    32    31   ar
    27    32    33   ar
    28    31    30   ar
    29    21     1   am
    30     1    22    2
    31    33    28   ar
    32    30    29   ar
    33    28    29   ar
    34    28    27    1
    35    27    34    2
