YVY
  -OEChem-02242320043D

 81 82  0     1  0  0  0  0  0999 V2000
    8.3780   -2.9370   -1.2510 C   0  0  0  0  0  0  0  0  0  0  0  0
    4.1130   -0.7020   -0.4840 C   0  0  0  0  0  0  0  0  0  0  0  0
    5.1380   -1.6540    0.0760 C   0  0  0  0  0  0  0  0  0  0  0  0
    6.2860   -1.8140   -0.9230 C   0  0  0  0  0  0  0  0  0  0  0  0
    9.3110   -3.8780   -0.6100 C   0  0  0  0  0  0  0  0  0  0  0  0
   10.0550   -4.6280   -0.0980 C   0  0  0  0  0  0  0  0  0  0  0  0
    4.2840   -0.2000   -1.5750 O   0  0  0  0  0  0  0  0  0  0  0  0
    7.2580   -2.7170   -0.3910 O   0  0  0  0  0  0  0  0  0  0  0  0
    3.0070   -0.4070    0.2280 N   0  0  0  0  0  0  0  0  0  0  0  0
    2.0110    0.5180   -0.3170 C   0  0  1  0  0  0  0  0  0  0  0  0
    0.6670    0.2300    0.3010 C   0  0  0  0  0  0  0  0  0  0  0  0
    0.5520   -0.6600    1.1150 O   0  0  0  0  0  0  0  0  0  0  0  0
    2.4220    1.9570    0.0040 C   0  0  0  0  0  0  0  0  0  0  0  0
    3.7060    2.2850   -0.7140 C   0  0  0  0  0  0  0  0  0  0  0  0
    4.9220    2.0400   -0.1030 C   0  0  0  0  0  0  0  0  0  0  0  0
    3.6680    2.8250   -1.9860 C   0  0  0  0  0  0  0  0  0  0  0  0
    6.0990    2.3360   -0.7640 C   0  0  0  0  0  0  0  0  0  0  0  0
    4.8450    3.1250   -2.6450 C   0  0  0  0  0  0  0  0  0  0  0  0
    6.0610    2.8760   -2.0360 C   0  0  0  0  0  0  0  0  0  0  0  0
   -0.4080    0.9630   -0.0520 N   0  0  0  0  0  0  0  0  0  0  0  0
   -1.7140    0.6830    0.5480 C   0  0  2  0  0  0  0  0  0  0  0  0
   -2.8050    1.1490   -0.3820 C   0  0  0  0  0  0  0  0  0  0  0  0
   -2.5190    1.6640   -1.4420 O   0  0  0  0  0  0  0  0  0  0  0  0
   -1.8320    1.4230    1.8820 C   0  0  0  0  0  0  0  0  0  0  0  0
   -0.8200    0.8710    2.8530 C   0  0  0  0  0  0  0  0  0  0  0  0
    0.4450    1.4240    2.9220 C   0  0  0  0  0  0  0  0  0  0  0  0
   -1.1590   -0.1840    3.6790 C   0  0  0  0  0  0  0  0  0  0  0  0
    1.3730    0.9170    3.8130 C   0  0  0  0  0  0  0  0  0  0  0  0
   -0.2320   -0.6900    4.5700 C   0  0  0  0  0  0  0  0  0  0  0  0
    1.0360   -0.1420    4.6340 C   0  0  0  0  0  0  0  0  0  0  0  0
   -5.1580    1.4450   -0.9400 C   0  0  1  0  0  0  0  0  0  0  0  0
   -6.4350    0.6470   -0.6690 C   0  0  0  0  0  0  0  0  0  0  0  0
   -5.4230    2.9110   -0.7100 C   0  0  0  0  0  0  0  0  0  0  0  0
   -6.2130    3.7020   -1.7210 C   0  0  0  0  0  0  0  0  0  0  0  0
   -6.2020   -0.8230   -1.0220 C   0  0  0  0  0  0  0  0  0  0  0  0
   -7.4790   -1.6210   -0.7510 C   0  0  0  0  0  0  0  0  0  0  0  0
   -8.2500   -3.9260   -0.9300 C   0  0  0  0  0  0  0  0  0  0  0  0
   -4.0980    0.9930   -0.0360 N   0  0  0  0  0  0  0  0  0  0  0  0
   -7.2560   -3.0290   -1.0890 N   0  0  0  0  0  0  0  0  0  0  0  0
   -8.0450   -5.2210   -1.2410 N   0  0  0  0  0  0  0  0  0  0  0  0
   -5.0030    3.4510    0.2850 O   0  0  0  0  0  0  0  0  0  0  0  0
   -9.3310   -3.5660   -0.5060 O   0  0  0  0  0  0  0  0  0  0  0  0
    8.8850   -1.9910   -1.4360 H   0  0  0  0  0  0  0  0  0  0  0  0
    8.0330   -3.3550   -2.1970 H   0  0  0  0  0  0  0  0  0  0  0  0
    5.5260   -1.2590    1.0150 H   0  0  0  0  0  0  0  0  0  0  0  0
    4.6740   -2.6240    0.2540 H   0  0  0  0  0  0  0  0  0  0  0  0
    5.8980   -2.2090   -1.8620 H   0  0  0  0  0  0  0  0  0  0  0  0
    6.7500   -0.8440   -1.1010 H   0  0  0  0  0  0  0  0  0  0  0  0
   10.7210   -5.2990    0.3590 H   0  0  0  0  0  0  0  0  0  0  0  0
    2.8710   -0.8090    1.1000 H   0  0  0  0  0  0  0  0  0  0  0  0
    1.9490    0.3910   -1.3980 H   0  0  0  0  0  0  0  0  0  0  0  0
    1.6380    2.6400   -0.3220 H   0  0  0  0  0  0  0  0  0  0  0  0
    2.5710    2.0610    1.0790 H   0  0  0  0  0  0  0  0  0  0  0  0
    4.9510    1.6180    0.8910 H   0  0  0  0  0  0  0  0  0  0  0  0
    2.7180    3.0120   -2.4650 H   0  0  0  0  0  0  0  0  0  0  0  0
    7.0490    2.1410   -0.2890 H   0  0  0  0  0  0  0  0  0  0  0  0
    4.8150    3.5460   -3.6390 H   0  0  0  0  0  0  0  0  0  0  0  0
    6.9810    3.1070   -2.5530 H   0  0  0  0  0  0  0  0  0  0  0  0
   -0.3160    1.6760   -0.7040 H   0  0  0  0  0  0  0  0  0  0  0  0
   -1.8140   -0.3890    0.7170 H   0  0  0  0  0  0  0  0  0  0  0  0
   -1.6440    2.4850    1.7260 H   0  0  0  0  0  0  0  0  0  0  0  0
   -2.8350    1.2870    2.2860 H   0  0  0  0  0  0  0  0  0  0  0  0
    0.7080    2.2510    2.2800 H   0  0  0  0  0  0  0  0  0  0  0  0
   -2.1490   -0.6130    3.6280 H   0  0  0  0  0  0  0  0  0  0  0  0
    2.3620    1.3490    3.8660 H   0  0  0  0  0  0  0  0  0  0  0  0
   -0.4970   -1.5150    5.2160 H   0  0  0  0  0  0  0  0  0  0  0  0
    1.7610   -0.5380    5.3300 H   0  0  0  0  0  0  0  0  0  0  0  0
   -4.8450    1.2910   -1.9730 H   0  0  0  0  0  0  0  0  0  0  0  0
   -6.6980    0.7310    0.3850 H   0  0  0  0  0  0  0  0  0  0  0  0
   -7.2470    1.0430   -1.2790 H   0  0  0  0  0  0  0  0  0  0  0  0
   -7.2070    3.2680   -1.8250 H   0  0  0  0  0  0  0  0  0  0  0  0
   -6.3010    4.7350   -1.3850 H   0  0  0  0  0  0  0  0  0  0  0  0
   -5.7010    3.6750   -2.6830 H   0  0  0  0  0  0  0  0  0  0  0  0
   -5.9390   -0.9060   -2.0770 H   0  0  0  0  0  0  0  0  0  0  0  0
   -5.3900   -1.2190   -0.4120 H   0  0  0  0  0  0  0  0  0  0  0  0
   -7.7430   -1.5380    0.3040 H   0  0  0  0  0  0  0  0  0  0  0  0
   -8.2920   -1.2250   -1.3600 H   0  0  0  0  0  0  0  0  0  0  0  0
   -4.3270    0.5810    0.8120 H   0  0  0  0  0  0  0  0  0  0  0  0
   -6.3940   -3.3160   -1.4270 H   0  0  0  0  0  0  0  0  0  0  0  0
   -8.7600   -5.8660   -1.1260 H   0  0  0  0  0  0  0  0  0  0  0  0
   -7.1820   -5.5080   -1.5790 H   0  0  0  0  0  0  0  0  0  0  0  0
 28 30  2  0  0  0  0
 29 30  1  0  0  0  0
 26 28  1  0  0  0  0
 27 29  2  0  0  0  0
 17 19  2  0  0  0  0
 15 17  1  0  0  0  0
 18 19  1  0  0  0  0
 14 15  2  0  0  0  0
 25 26  2  0  0  0  0
 25 27  1  0  0  0  0
 16 18  2  0  0  0  0
 14 16  1  0  0  0  0
 13 14  1  0  0  0  0
 24 25  1  0  0  0  0
 10 13  1  0  0  0  0
 21 24  1  0  0  0  0
 11 12  2  0  0  0  0
 10 11  1  0  0  0  0
  9 10  1  0  0  0  0
  1  8  1  0  0  0  0
  1  5  1  0  0  0  0
 11 20  1  0  0  0  0
  2  9  1  0  0  0  0
 20 21  1  0  0  0  0
 21 22  1  0  0  0  0
  4  8  1  0  0  0  0
  5  6  3  0  0  0  0
  2  3  1  0  0  0  0
  2  7  2  0  0  0  0
  3  4  1  0  0  0  0
 22 38  1  0  0  0  0
 22 23  2  0  0  0  0
 31 38  1  0  0  0  0
 33 34  1  0  0  0  0
 31 33  1  0  0  0  0
 31 32  1  0  0  0  0
 32 35  1  0  0  0  0
 35 36  1  0  0  0  0
 33 41  2  0  0  0  0
 36 39  1  0  0  0  0
 37 39  1  0  0  0  0
 37 40  1  0  0  0  0
 37 42  2  0  0  0  0
  1 43  1  0  0  0  0
  1 44  1  0  0  0  0
 21 60  1  0  0  0  0
 24 62  1  0  0  0  0
 24 61  1  0  0  0  0
 31 68  1  0  0  0  0
 30 67  1  0  0  0  0
 28 65  1  0  0  0  0
 29 66  1  0  0  0  0
 32 69  1  0  0  0  0
 32 70  1  0  0  0  0
 10 51  1  0  0  0  0
  3 45  1  0  0  0  0
  3 46  1  0  0  0  0
 13 53  1  0  0  0  0
 13 52  1  0  0  0  0
  4 47  1  0  0  0  0
  4 48  1  0  0  0  0
  6 49  1  0  0  0  0
 26 63  1  0  0  0  0
 27 64  1  0  0  0  0
 34 71  1  0  0  0  0
 34 72  1  0  0  0  0
 34 73  1  0  0  0  0
 35 74  1  0  0  0  0
 35 75  1  0  0  0  0
 36 76  1  0  0  0  0
 36 77  1  0  0  0  0
 19 58  1  0  0  0  0
 17 56  1  0  0  0  0
 15 54  1  0  0  0  0
 16 55  1  0  0  0  0
 18 57  1  0  0  0  0
  9 50  1  0  0  0  0
 20 59  1  0  0  0  0
 38 78  1  0  0  0  0
 39 79  1  0  0  0  0
 40 80  1  0  0  0  0
 40 81  1  0  0  0  0
M  END
> <OPENEYE_ISO_SMILES>
CC(=O)[C@H](CCCNC(=O)N)NC(=O)[C@H](Cc1ccccc1)NC(=O)[C@@H](Cc2ccccc2)NC(=O)CCOCC#C

> <OPENEYE_INCHI>
InChI=1S/C31H39N5O6/c1-3-18-42-19-16-28(38)34-26(20-23-11-6-4-7-12-23)29(39)36-27(21-24-13-8-5-9-14-24)30(40)35-25(22(2)37)15-10-17-33-31(32)41/h1,4-9,11-14,25-27H,10,15-21H2,2H3,(H,34,38)(H,35,40)(H,36,39)(H3,32,33,41)/t25-,26+,27-/m0/s1

> <OPENEYE_INCHIKEY>
VYPOUUBVMAOAGP-VJGNERBWSA-N

> <FORMULA>
C31H39N5O6

$$$$
