PG4
  -OEChem-02242320033D

 31 30  0     0  0  0  0  0  0999 V2000
    0.7950    1.1410    4.9960 O   0  0  0  0  0  0  0  0  0  0  0  0
    1.5940    0.1220    4.3930 C   0  0  0  0  0  0  0  0  0  0  0  0
    0.6850   -0.8930    3.6970 C   0  0  0  0  0  0  0  0  0  0  0  0
   -0.0830   -0.2330    2.6900 O   0  0  0  0  0  0  0  0  0  0  0  0
   -0.9070   -1.2280    2.0810 C   0  0  0  0  0  0  0  0  0  0  0  0
   -1.7620   -0.5840    0.9870 C   0  0  0  0  0  0  0  0  0  0  0  0
   -0.9100   -0.0000   -0.0000 O   0  0  0  0  0  0  0  0  0  0  0  0
   -1.7620    0.5810   -0.9880 C   0  0  0  0  0  0  0  0  0  0  0  0
   -0.9090    1.2270   -2.0810 C   0  0  0  0  0  0  0  0  0  0  0  0
   -0.0830    0.2330   -2.6900 O   0  0  0  0  0  0  0  0  0  0  0  0
    0.6850    0.8940   -3.6970 C   0  0  0  0  0  0  0  0  0  0  0  0
    1.5950   -0.1190   -4.3920 C   0  0  0  0  0  0  0  0  0  0  0  0
    0.7980   -1.1400   -4.9960 O   0  0  0  0  0  0  0  0  0  0  0  0
    1.4050    1.7590    5.4220 H   0  0  0  0  0  0  0  0  0  0  0  0
    2.2640    0.5710    3.6600 H   0  0  0  0  0  0  0  0  0  0  0  0
    2.1810   -0.3810    5.1610 H   0  0  0  0  0  0  0  0  0  0  0  0
    1.2950   -1.6710    3.2370 H   0  0  0  0  0  0  0  0  0  0  0  0
    0.0150   -1.3430    4.4300 H   0  0  0  0  0  0  0  0  0  0  0  0
   -0.2770   -2.0020    1.6410 H   0  0  0  0  0  0  0  0  0  0  0  0
   -1.5570   -1.6740    2.8340 H   0  0  0  0  0  0  0  0  0  0  0  0
   -2.3900   -1.3440    0.5220 H   0  0  0  0  0  0  0  0  0  0  0  0
   -2.3910    0.1890    1.4270 H   0  0  0  0  0  0  0  0  0  0  0  0
   -2.3910   -0.1920   -1.4270 H   0  0  0  0  0  0  0  0  0  0  0  0
   -2.3920    1.3400   -0.5230 H   0  0  0  0  0  0  0  0  0  0  0  0
   -1.5590    1.6710   -2.8350 H   0  0  0  0  0  0  0  0  0  0  0  0
   -0.2800    2.0010   -1.6410 H   0  0  0  0  0  0  0  0  0  0  0  0
    0.0140    1.3430   -4.4300 H   0  0  0  0  0  0  0  0  0  0  0  0
    1.2930    1.6730   -3.2370 H   0  0  0  0  0  0  0  0  0  0  0  0
    2.1820    0.3850   -5.1600 H   0  0  0  0  0  0  0  0  0  0  0  0
    2.2660   -0.5670   -3.6590 H   0  0  0  0  0  0  0  0  0  0  0  0
    1.4090   -1.7570   -5.4220 H   0  0  0  0  0  0  0  0  0  0  0  0
  1  2  1  0  0  0  0
  1 14  1  0  0  0  0
  2  3  1  0  0  0  0
  2 15  1  0  0  0  0
  2 16  1  0  0  0  0
  3  4  1  0  0  0  0
  3 17  1  0  0  0  0
  3 18  1  0  0  0  0
  4  5  1  0  0  0  0
  5  6  1  0  0  0  0
  5 19  1  0  0  0  0
  5 20  1  0  0  0  0
  6  7  1  0  0  0  0
  6 21  1  0  0  0  0
  6 22  1  0  0  0  0
  7  8  1  0  0  0  0
  8  9  1  0  0  0  0
  8 23  1  0  0  0  0
  8 24  1  0  0  0  0
  9 10  1  0  0  0  0
  9 25  1  0  0  0  0
  9 26  1  0  0  0  0
 10 11  1  0  0  0  0
 11 12  1  0  0  0  0
 11 27  1  0  0  0  0
 11 28  1  0  0  0  0
 12 13  1  0  0  0  0
 12 29  1  0  0  0  0
 12 30  1  0  0  0  0
 13 31  1  0  0  0  0
M  END
> <OPENEYE_ISO_SMILES>
C(COCCOCCOCCO)O

> <OPENEYE_INCHI>
InChI=1S/C8H18O5/c9-1-3-11-5-7-13-8-6-12-4-2-10/h9-10H,1-8H2

> <OPENEYE_INCHIKEY>
UWHCKJMYHZGTIT-UHFFFAOYSA-N

> <FORMULA>
C8H18O5

$$$$
