@<TRIPOS>MOLECULE
/home/pku/3cl/gett_pdb/8DD9/8DD9_mol2/ligand/8DD9_B1S.pdb
 29 30 0 0 0
SMALL
GASTEIGER

@<TRIPOS>ATOM
      1  C7         9.5010    3.5990   22.0860 C.3   401  B1S401      0.2368
      2  O8        10.2140    2.5960   22.7480 O.3   401  B1S401     -0.4285
      3  C9        10.4440    1.4420   22.0000 C.2   401  B1S401      0.4218
      4  O10       10.3050    1.4500   20.8280 O.2   401  B1S401     -0.2245
      5  C1         8.0040    3.4370   22.3410 C.ar  401  B1S401      0.0213
      6  C2         7.5180    2.3170   22.9890 C.ar  401  B1S401     -0.0007
      7  C3         6.1600    2.1850   23.2170 C.ar  401  B1S401     -0.0002
      8  C4         5.2850    3.1720   22.7960 C.ar  401  B1S401     -0.0000
      9  C5         5.7730    4.2920   22.1500 C.ar  401  B1S401     -0.0002
     10  C6         7.1310    4.4220   21.9240 C.ar  401  B1S401     -0.0007
     11  N11       10.8480    0.2390   22.6890 N.am  401  B1S401     -0.1611
     12  C12       10.9610   -1.0090   21.9730 C.3   401  B1S401      0.1761
     13  C17        9.5650   -1.4960   21.6150 C.2   401  B1S401      0.2614
     14  O18        8.7060   -1.4930   22.4170 O.2   401  B1S401     -0.2715
     15  C13       11.6300   -2.0530   22.8570 C.3   401  B1S401      0.0312
     16  C14       13.0270   -1.5810   23.2490 C.3   401  B1S401      0.0022
     17  C15       13.7400   -2.6670   24.0490 C.3   401  B1S401      0.0001
     18  C16       13.8350   -1.2780   21.9920 C.3   401  B1S401      0.0001
     19  N19        9.2810   -1.9570   20.2840 N.am  401  B1S401     -0.2030
     20  C20        7.9480   -2.4210   19.9850 C.3   401  B1S401      0.1287
     21  C21        8.1170   -3.8930   19.6140 C.3   401  B1S401      0.2036
     22  O22        8.1180   -4.8740   20.5920 O.3   401  B1S401     -0.2185
     23  C24        7.3370   -1.5650   18.8620 C.3   401  B1S401      0.0335
     24  C25        7.3020   -0.0540   19.2600 C.3   401  B1S401      0.0818
     25  C26        6.1900    0.1530   20.2230 C.3   401  B1S401      0.0326
     26  C27        5.4630    1.4340   19.7760 C.3   401  B1S401      0.1156
     27  N28        5.9450    1.7430   18.3660 N.am  401  B1S401     -0.2054
     28  C29        7.0640    0.8310   18.0610 C.2   401  B1S401      0.2410
     29  O30        7.6620    0.8250   17.0490 O.2   401  B1S401     -0.2734
@<TRIPOS>BOND
     1    29    28    2
     2    28    27   am
     3    28    24    1
     4    27    26    1
     5    23    24    1
     6    23    20    1
     7    24    25    1
     8    21    20    1
     9    21    22    1
    10    26    25    1
    11    20    19    1
    12    19    13   am
    13     4     3    2
    14    13    12    1
    15    13    14    2
    16    10     9   ar
    17    10     5   ar
    18    12    11    1
    19    12    15    1
    20    18    16    1
    21     3    11   am
    22     3     2    1
    23     1     5    1
    24     1     2    1
    25     9     8   ar
    26     5     6   ar
    27     8     7   ar
    28    15    16    1
    29     6     7   ar
    30    16    17    1
