T8Y
  -OEChem-02242320043D

 26 26  0     0  0  0  0  0  0999 V2000
   -1.3290   -0.0650    0.3120 N   0  0  0  0  0  0  0  0  0  0  0  0
   -0.6510    1.2210    0.5230 C   0  0  0  0  0  0  0  0  0  0  0  0
    0.5480    1.3050   -0.4300 C   0  0  0  0  0  0  0  0  0  0  0  0
   -2.6420   -0.1070    0.0110 C   0  0  0  0  0  0  0  0  0  0  0  0
   -3.4290    1.1720   -0.1060 C   0  0  0  0  0  0  0  0  0  0  0  0
    1.3290    0.0650   -0.3120 N   0  0  0  0  0  0  0  0  0  0  0  0
    3.4050   -1.1720    0.2140 C   0  0  0  0  0  0  0  0  0  0  0  0
    3.2130    1.1750    0.0640 O   0  0  0  0  0  0  0  0  0  0  0  0
    2.6430    0.1080   -0.0160 C   0  0  0  0  0  0  0  0  0  0  0  0
    0.6510   -1.2210   -0.5240 C   0  0  0  0  0  0  0  0  0  0  0  0
   -0.5480   -1.3050    0.4290 C   0  0  0  0  0  0  0  0  0  0  0  0
   -3.1900   -1.1750   -0.1660 O   0  0  0  0  0  0  0  0  0  0  0  0
   -1.3420    2.0380    0.3140 H   0  0  0  0  0  0  0  0  0  0  0  0
   -0.3040    1.2870    1.5540 H   0  0  0  0  0  0  0  0  0  0  0  0
    0.1940    1.4190   -1.4540 H   0  0  0  0  0  0  0  0  0  0  0  0
    1.1720    2.1570   -0.1590 H   0  0  0  0  0  0  0  0  0  0  0  0
   -2.9990    1.7930   -0.8910 H   0  0  0  0  0  0  0  0  0  0  0  0
   -4.4650    0.9400   -0.3530 H   0  0  0  0  0  0  0  0  0  0  0  0
   -3.3940    1.7090    0.8420 H   0  0  0  0  0  0  0  0  0  0  0  0
    2.7560   -2.0230    0.0090 H   0  0  0  0  0  0  0  0  0  0  0  0
    4.2690   -1.2050   -0.4490 H   0  0  0  0  0  0  0  0  0  0  0  0
    3.7400   -1.2130    1.2510 H   0  0  0  0  0  0  0  0  0  0  0  0
    0.3040   -1.2870   -1.5550 H   0  0  0  0  0  0  0  0  0  0  0  0
    1.3430   -2.0380   -0.3170 H   0  0  0  0  0  0  0  0  0  0  0  0
   -0.1940   -1.4190    1.4540 H   0  0  0  0  0  0  0  0  0  0  0  0
   -1.1720   -2.1570    0.1580 H   0  0  0  0  0  0  0  0  0  0  0  0
  7  9  1  0  0  0  0
  8  9  2  0  0  0  0
  6  9  1  0  0  0  0
  6 10  1  0  0  0  0
 10 11  1  0  0  0  0
  1 11  1  0  0  0  0
  1  2  1  0  0  0  0
  2  3  1  0  0  0  0
  3  6  1  0  0  0  0
  1  4  1  0  0  0  0
  4 12  2  0  0  0  0
  4  5  1  0  0  0  0
  2 13  1  0  0  0  0
  2 14  1  0  0  0  0
  3 15  1  0  0  0  0
  3 16  1  0  0  0  0
  5 17  1  0  0  0  0
  5 18  1  0  0  0  0
  5 19  1  0  0  0  0
  7 20  1  0  0  0  0
  7 21  1  0  0  0  0
  7 22  1  0  0  0  0
 10 23  1  0  0  0  0
 10 24  1  0  0  0  0
 11 25  1  0  0  0  0
 11 26  1  0  0  0  0
M  END
> <OPENEYE_ISO_SMILES>
CC(=O)N1CCN(CC1)C(=O)C

> <OPENEYE_INCHI>
InChI=1S/C8H14N2O2/c1-7(11)9-3-5-10(6-4-9)8(2)12/h3-6H2,1-2H3

> <OPENEYE_INCHIKEY>
NBQBICYRKOTWRR-UHFFFAOYSA-N

> <FORMULA>
C8H14N2O2

$$$$
