WRY
  -OEChem-02242320043D

 27 28  0     0  0  0  0  0  0999 V2000
   -3.3080    1.3610    0.0740 N   0  0  0  0  0  0  0  0  0  0  0  0
    3.6140    0.1660    0.0040 C   0  0  0  0  0  0  0  0  0  0  0  0
    3.1680    1.4880   -0.0250 C   0  0  0  0  0  0  0  0  0  0  0  0
    1.8380    1.7750   -0.0370 C   0  0  0  0  0  0  0  0  0  0  0  0
    0.9010    0.7270   -0.0200 C   0  0  0  0  0  0  0  0  0  0  0  0
   -0.4790    0.9860   -0.0320 C   0  0  0  0  0  0  0  0  0  0  0  0
   -2.8090    0.1130   -0.0260 C   0  0  0  0  0  0  0  0  0  0  0  0
   -3.5620   -0.8360   -0.1260 O   0  0  0  0  0  0  0  0  0  0  0  0
   -4.7580    1.5740    0.0620 C   0  0  0  0  0  0  0  0  0  0  0  0
   -1.3470   -0.1010   -0.0140 C   0  0  0  0  0  0  0  0  0  0  0  0
   -0.8230   -1.4040    0.0150 C   0  0  0  0  0  0  0  0  0  0  0  0
   -1.7680   -2.5780    0.0340 C   0  0  0  0  0  0  0  0  0  0  0  0
    1.3510   -0.6180    0.0100 C   0  0  0  0  0  0  0  0  0  0  0  0
    0.4670   -1.6220    0.0260 N   0  0  0  0  0  0  0  0  0  0  0  0
    4.9410   -0.0880    0.0160 F   0  0  0  0  0  0  0  0  0  0  0  0
    2.7310   -0.8740    0.0270 C   0  0  0  0  0  0  0  0  0  0  0  0
   -2.7080    2.1180    0.1570 H   0  0  0  0  0  0  0  0  0  0  0  0
    3.8880    2.2940   -0.0380 H   0  0  0  0  0  0  0  0  0  0  0  0
    1.5040    2.8020   -0.0600 H   0  0  0  0  0  0  0  0  0  0  0  0
   -0.8550    1.9980   -0.0550 H   0  0  0  0  0  0  0  0  0  0  0  0
   -4.9700    2.6390    0.1560 H   0  0  0  0  0  0  0  0  0  0  0  0
   -5.1710    1.2030   -0.8760 H   0  0  0  0  0  0  0  0  0  0  0  0
   -5.2100    1.0380    0.8960 H   0  0  0  0  0  0  0  0  0  0  0  0
   -2.0830   -2.8070   -0.9840 H   0  0  0  0  0  0  0  0  0  0  0  0
   -1.2630   -3.4440    0.4610 H   0  0  0  0  0  0  0  0  0  0  0  0
   -2.6410   -2.3320    0.6390 H   0  0  0  0  0  0  0  0  0  0  0  0
    3.0930   -1.8910    0.0500 H   0  0  0  0  0  0  0  0  0  0  0  0
  2 15  1  0  0  0  0
  2 16  2  0  0  0  0
 13 16  1  0  0  0  0
  2  3  1  0  0  0  0
 13 14  2  0  0  0  0
 11 14  1  0  0  0  0
  5 13  1  0  0  0  0
  3  4  2  0  0  0  0
 11 12  1  0  0  0  0
 10 11  2  0  0  0  0
  4  5  1  0  0  0  0
  5  6  2  0  0  0  0
  6 10  1  0  0  0  0
  7 10  1  0  0  0  0
  7  8  2  0  0  0  0
  1  7  1  0  0  0  0
  1  9  1  0  0  0  0
  1 17  1  0  0  0  0
  3 18  1  0  0  0  0
  4 19  1  0  0  0  0
  6 20  1  0  0  0  0
  9 21  1  0  0  0  0
  9 22  1  0  0  0  0
  9 23  1  0  0  0  0
 12 24  1  0  0  0  0
 12 25  1  0  0  0  0
 12 26  1  0  0  0  0
 16 27  1  0  0  0  0
M  END
> <OPENEYE_ISO_SMILES>
Cc1c(cc2ccc(cc2n1)F)C(=O)NC

> <OPENEYE_INCHI>
InChI=1S/C12H11FN2O/c1-7-10(12(16)14-2)5-8-3-4-9(13)6-11(8)15-7/h3-6H,1-2H3,(H,14,16)

> <OPENEYE_INCHIKEY>
XTBYDIXZNAOPDG-UHFFFAOYSA-N

> <FORMULA>
C12H11FN2O

$$$$
