@<TRIPOS>MOLECULE
/home/pku/3cl/gett_pdb/5SPY/5SPY_mol2/ligand/5SPY_QJ0.pdb
 25 27 0 0 0
SMALL
GASTEIGER

@<TRIPOS>ATOM
      1  C18      -47.1600  -29.1690    4.4820 C.ar  201  QJ0201      0.0302
      2  C13      -43.7520  -31.3990    1.4590 C.ar  201  QJ0201      0.0696
      3  C11      -44.8060  -28.6520    1.2980 C.3   201  QJ0201      0.0555
      4  C19      -48.5650  -29.2750    4.3850 C.ar  201  QJ0201     -0.0349
      5  C02      -49.3130  -29.3770    5.5640 C.ar  201  QJ0201      0.0367
      6  C03      -48.6810  -29.3720    6.8070 C.ar  201  QJ0201      0.0439
      7  C05      -46.6120  -29.1770    5.7380 C.ar  201  QJ0201      0.1388
      8  C07      -44.9310  -28.9950    4.3070 C.ar  201  QJ0201      0.0147
      9  C08      -46.0860  -29.0580    3.5660 C.ar  201  QJ0201      0.0448
     10  C09      -46.1040  -28.9990    2.0380 C.2   201  QJ0201      0.1747
     11  N04      -47.3640  -29.2770    6.8680 N.ar  201  QJ0201     -0.2364
     12  N06      -45.2560  -29.0670    5.5880 N.ar  201  QJ0201     -0.3451
     13  N14      -43.0100  -31.2880    2.5700 N.ar  201  QJ0201     -0.2832
     14  N15      -42.9340  -32.5170    3.1200 N.ar  201  QJ0201     -0.2175
     15  N16      -43.6210  -33.3690    2.3540 N.ar  201  QJ0201     -0.2175
     16  N17      -44.1320  -32.6760    1.3140 N.ar  201  QJ0201     -0.2832
     17  O10      -47.1020  -29.2160    1.4390 O.2   201  QJ0201     -0.2911
     18  S12      -44.1670  -30.0480    0.3350 S.3   201  QJ0201     -0.1380
     19 BR1       -51.2350  -29.5290    5.5190 Br    201  QJ0201     -0.0487
     20 H112      -44.9640  -27.9360    0.6790 H     201  QJ0201      0.0455
     21 H111      -44.1310  -28.3660    1.9310 H     201  QJ0201      0.0455
     22 H191      -48.9710  -29.2630    3.5510 H     201  QJ0201      0.0636
     23 H031      -49.1990  -29.4490    7.5890 H     201  QJ0201      0.0841
     24 H071      -44.0800  -28.9050    3.9540 H     201  QJ0201      0.0815
     25 H061      -44.6970  -29.0460    6.2280 H     201  QJ0201      0.1668
@<TRIPOS>BOND
     1    18     3    1
     2    18     2    1
     3    20     3    1
     4     3    21    1
     5     3    10    1
     6    16     2   ar
     7    16    15   ar
     8    17    10    2
     9     2    13   ar
    10    10     9    1
    11    15    14   ar
    12    13    14   ar
    13    22     4    1
    14     9     8   ar
    15     9     1   ar
    16    24     8    1
    17     8    12   ar
    18     4     1   ar
    19     4     5   ar
    20     1     7   ar
    21    19     5    1
    22     5     6   ar
    23    12     7   ar
    24    12    25    1
    25     7    11   ar
    26     6    11   ar
    27     6    23    1
