WQ1
  -OEChem-02242320043D

 18 18  0     0  0  0  0  0  0999 V2000
    1.1580   -1.7030    0.0000 N   0  0  0  0  0  0  0  0  0  0  0  0
   -1.8790    0.4510   -0.0010 C   0  0  0  0  0  0  0  0  0  0  0  0
   -0.1040   -1.3200    0.0010 C   0  0  0  0  0  0  0  0  0  0  0  0
    2.1480   -0.8320   -0.0010 C   0  0  0  0  0  0  0  0  0  0  0  0
    1.8930    0.5270   -0.0000 C   0  0  0  0  0  0  0  0  0  0  0  0
    0.2600    2.4410    0.0000 C   0  0  0  0  0  0  0  0  0  0  0  0
    0.5790    0.9680    0.0000 C   0  0  0  0  0  0  0  0  0  0  0  0
   -0.4350    0.0220   -0.0000 C   0  0  0  0  0  0  0  0  0  0  0  0
   -2.7200   -0.7040   -0.0000 O   0  0  0  0  0  0  0  0  0  0  0  0
   -2.0810    1.0480    0.8890 H   0  0  0  0  0  0  0  0  0  0  0  0
   -2.0810    1.0470   -0.8910 H   0  0  0  0  0  0  0  0  0  0  0  0
   -0.8870   -2.0630    0.0010 H   0  0  0  0  0  0  0  0  0  0  0  0
    3.1690   -1.1840   -0.0010 H   0  0  0  0  0  0  0  0  0  0  0  0
    2.7080    1.2360   -0.0000 H   0  0  0  0  0  0  0  0  0  0  0  0
    0.1830    2.7960   -1.0270 H   0  0  0  0  0  0  0  0  0  0  0  0
   -0.6870    2.6070    0.5150 H   0  0  0  0  0  0  0  0  0  0  0  0
    1.0530    2.9840    0.5140 H   0  0  0  0  0  0  0  0  0  0  0  0
   -3.6650   -0.5030   -0.0000 H   0  0  0  0  0  0  0  0  0  0  0  0
  1  4  2  0  0  0  0
  4  5  1  0  0  0  0
  1  3  1  0  0  0  0
  5  7  2  0  0  0  0
  3  8  2  0  0  0  0
  7  8  1  0  0  0  0
  6  7  1  0  0  0  0
  2  8  1  0  0  0  0
  2  9  1  0  0  0  0
  2 10  1  0  0  0  0
  2 11  1  0  0  0  0
  3 12  1  0  0  0  0
  4 13  1  0  0  0  0
  5 14  1  0  0  0  0
  6 15  1  0  0  0  0
  6 16  1  0  0  0  0
  6 17  1  0  0  0  0
  9 18  1  0  0  0  0
M  END
> <OPENEYE_ISO_SMILES>
Cc1ccncc1CO

> <OPENEYE_INCHI>
InChI=1S/C7H9NO/c1-6-2-3-8-4-7(6)5-9/h2-4,9H,5H2,1H3

> <OPENEYE_INCHIKEY>
YZWSTKQAGIQVJK-UHFFFAOYSA-N

> <FORMULA>
C7H9NO

$$$$
