UPD
  -OEChem-02242320043D

 39 40  0     0  0  0  0  0  0999 V2000
   -0.8680    0.1550   -0.9390 N   0  0  0  0  0  0  0  0  0  0  0  0
    5.3170    0.4210    0.5670 C   0  0  0  0  0  0  0  0  0  0  0  0
    5.6420    1.8640    0.8560 C   0  0  0  0  0  0  0  0  0  0  0  0
    3.8450   -1.2920   -0.3770 C   0  0  0  0  0  0  0  0  0  0  0  0
    2.3760   -1.4560    0.0270 C   0  0  0  0  0  0  0  0  0  0  0  0
   -2.2030    0.0530   -0.5250 C   0  0  0  0  0  0  0  0  0  0  0  0
   -4.0570   -1.2330    0.2480 C   0  0  0  0  0  0  0  0  0  0  0  0
   -3.0110    1.1790   -0.4780 C   0  0  0  0  0  0  0  0  0  0  0  0
    6.0270   -0.4600    1.0040 O   0  0  0  0  0  0  0  0  0  0  0  0
    4.2370    0.1100   -0.1770 N   0  0  0  0  0  0  0  0  0  0  0  0
    3.4300    1.1650   -0.8030 C   0  0  0  0  0  0  0  0  0  0  0  0
    1.9660    0.9740   -0.3940 C   0  0  0  0  0  0  0  0  0  0  0  0
    1.5230   -0.4480   -0.7470 C   0  0  0  0  0  0  0  0  0  0  0  0
    0.0740   -0.6290   -0.3770 C   0  0  0  0  0  0  0  0  0  0  0  0
   -0.2460   -1.4800    0.4260 O   0  0  0  0  0  0  0  0  0  0  0  0
   -4.2690    1.0900   -0.0890 N   0  0  0  0  0  0  0  0  0  0  0  0
   -4.8060   -0.0640    0.2700 C   0  0  0  0  0  0  0  0  0  0  0  0
   -6.1030   -0.1050    0.6680 O   0  0  0  0  0  0  0  0  0  0  0  0
   -6.8210    1.1310    0.6690 C   0  0  0  0  0  0  0  0  0  0  0  0
   -2.7360   -1.1810   -0.1600 C   0  0  0  0  0  0  0  0  0  0  0  0
   -0.6220    0.7870   -1.6330 H   0  0  0  0  0  0  0  0  0  0  0  0
    4.9550    2.5080    0.3070 H   0  0  0  0  0  0  0  0  0  0  0  0
    5.5410    2.0520    1.9250 H   0  0  0  0  0  0  0  0  0  0  0  0
    6.6650    2.0750    0.5450 H   0  0  0  0  0  0  0  0  0  0  0  0
    4.4680   -1.9380    0.2420 H   0  0  0  0  0  0  0  0  0  0  0  0
    3.9680   -1.5620   -1.4260 H   0  0  0  0  0  0  0  0  0  0  0  0
    2.0450   -2.4680   -0.2070 H   0  0  0  0  0  0  0  0  0  0  0  0
    2.2710   -1.2760    1.0970 H   0  0  0  0  0  0  0  0  0  0  0  0
   -4.5020   -2.1730    0.5420 H   0  0  0  0  0  0  0  0  0  0  0  0
   -2.6070    2.1390   -0.7640 H   0  0  0  0  0  0  0  0  0  0  0  0
    3.7790    2.1410   -0.4650 H   0  0  0  0  0  0  0  0  0  0  0  0
    3.5180    1.0980   -1.8880 H   0  0  0  0  0  0  0  0  0  0  0  0
    1.8640    1.1310    0.6790 H   0  0  0  0  0  0  0  0  0  0  0  0
    1.3420    1.6920   -0.9280 H   0  0  0  0  0  0  0  0  0  0  0  0
    1.6480   -0.6120   -1.8170 H   0  0  0  0  0  0  0  0  0  0  0  0
   -6.3300    1.8360    1.3410 H   0  0  0  0  0  0  0  0  0  0  0  0
   -6.8370    1.5420   -0.3400 H   0  0  0  0  0  0  0  0  0  0  0  0
   -7.8420    0.9570    1.0070 H   0  0  0  0  0  0  0  0  0  0  0  0
   -2.1320   -2.0760   -0.1900 H   0  0  0  0  0  0  0  0  0  0  0  0
  2  3  1  0  0  0  0
  2  9  2  0  0  0  0
  2 10  1  0  0  0  0
  4 10  1  0  0  0  0
 10 11  1  0  0  0  0
  4  5  1  0  0  0  0
 11 12  1  0  0  0  0
  5 13  1  0  0  0  0
 12 13  1  0  0  0  0
 13 14  1  0  0  0  0
 14 15  2  0  0  0  0
  1 14  1  0  0  0  0
  1  6  1  0  0  0  0
  6  8  2  0  0  0  0
  6 20  1  0  0  0  0
  8 16  1  0  0  0  0
  7 20  2  0  0  0  0
 16 17  2  0  0  0  0
  7 17  1  0  0  0  0
 17 18  1  0  0  0  0
 18 19  1  0  0  0  0
  1 21  1  0  0  0  0
  3 22  1  0  0  0  0
  3 23  1  0  0  0  0
  3 24  1  0  0  0  0
  4 25  1  0  0  0  0
  4 26  1  0  0  0  0
  5 27  1  0  0  0  0
  5 28  1  0  0  0  0
  7 29  1  0  0  0  0
  8 30  1  0  0  0  0
 11 31  1  0  0  0  0
 11 32  1  0  0  0  0
 12 33  1  0  0  0  0
 12 34  1  0  0  0  0
 13 35  1  0  0  0  0
 19 36  1  0  0  0  0
 19 37  1  0  0  0  0
 19 38  1  0  0  0  0
 20 39  1  0  0  0  0
M  END
> <OPENEYE_ISO_SMILES>
CC(=O)N1CCC(CC1)C(=O)Nc2ccc(nc2)OC

> <OPENEYE_INCHI>
InChI=1S/C14H19N3O3/c1-10(18)17-7-5-11(6-8-17)14(19)16-12-3-4-13(20-2)15-9-12/h3-4,9,11H,5-8H2,1-2H3,(H,16,19)

> <OPENEYE_INCHIKEY>
ZIGOYOFMTWMITB-UHFFFAOYSA-N

> <FORMULA>
C14H19N3O3

$$$$
