@<TRIPOS>MOLECULE
/home/pku/3cl/gett_pdb/5RVB/5RVB_mol2/ligand/5RVB_7PD.pdb
 18 19 0 0 0
SMALL
GASTEIGER

@<TRIPOS>ATOM
      1  C1       -49.4700  -28.9440    4.8810 C.ar  201  7PD201      0.0928
      2  C2       -47.1540  -29.1960    4.9270 C.ar  201  7PD201      0.1705
      3  C3       -47.1980  -29.4070    6.2740 C.ar  201  7PD201      0.1681
      4  C4       -49.5020  -29.1480    6.2590 C.ar  201  7PD201      0.2684
      5  C5       -45.8980  -29.2240    4.2440 C.ar  201  7PD201      0.2803
      6  C6       -44.8920  -29.6340    6.2560 C.ar  201  7PD201      0.1950
      7  N7       -48.3150  -28.9590    4.2470 N.ar  201  7PD201     -0.2412
      8  N8       -46.0310  -29.6250    6.9320 N.ar  201  7PD201     -0.1965
      9  N9       -48.3800  -29.3730    6.9260 N.ar  201  7PD201     -0.3043
     10  N10      -44.8050  -29.4460    4.9430 N.ar  201  7PD201     -0.2934
     11  N11      -43.6960  -29.8780    7.0110 N.pl3 201  7PD201     -0.3289
     12  O12      -50.5250  -29.1360    6.8500 O.2   201  7PD201     -0.2662
     13  O13      -45.8180  -29.0690    3.0680 O.2   201  7PD201     -0.2654
     14  H1       -50.2580  -28.7900    4.4130 H     201  7PD201      0.0885
     15  H2       -48.4050  -29.4990    7.7840 H     201  7PD201      0.1704
     16  H3       -44.0320  -29.4710    4.5490 H     201  7PD201      0.1716
     17  H4       -43.4250  -30.6920    7.1440 H     201  7PD201      0.1451
     18  H5       -43.2430  -29.2120    7.3340 H     201  7PD201      0.1451
@<TRIPOS>BOND
     1    13     5    2
     2     5     2   ar
     3     5    10   ar
     4     7     1   ar
     5     7     2   ar
     6    14     1    1
     7    16    10    1
     8     1     4   ar
     9     2     3   ar
    10    10     6   ar
    11     6     8   ar
    12     6    11    1
    13     4    12    2
    14     4     9   ar
    15     3     9   ar
    16     3     8   ar
    17     9    15    1
    18    11    17    1
    19    11    18    1
