@<TRIPOS>MOLECULE
/home/pku/3cl/gett_pdb/5NH0/5NH0_mol2/ligand/5NH0_8X8.pdb
 28 29 0 0 0
SMALL
GASTEIGER

@<TRIPOS>ATOM
      1  C2        50.2170   12.8730   49.4920 C.3   301  8X8301      0.1379
      2  C3        48.9680   13.0370   48.6130 C.3   301  8X8301      0.0437
      3  C4        50.3470   14.1870   50.2830 C.3   301  8X8301      0.0437
      4  C5        49.9690   11.7000   50.4350 C.3   301  8X8301      0.0437
      5  O1        51.3830   12.4870   48.6850 O.3   301  8X8301     -0.4408
      6  C36       52.8550   12.6820   48.8510 C.2   301  8X8301      0.4209
      7  O37       53.5240   12.3280   49.8390 O.2   301  8X8301     -0.2246
      8  N38       53.4310   13.2850   47.8080 N.am  301  8X8301     -0.1673
      9  C40       54.8080   13.8080   47.8020 C.3   301  8X8301      0.1385
     10  C42       55.6630   13.0680   46.7310 C.3   301  8X8301      0.0341
     11  C45       55.8920   11.5690   46.9710 C.3   301  8X8301      0.0818
     12  C47       56.7360   10.9190   45.8790 C.2   301  8X8301      0.2410
     13  O48       56.4670   10.9950   44.7010 O.2   301  8X8301     -0.2734
     14  N49       57.7450   10.2020   46.4060 N.am  301  8X8301     -0.2054
     15  C51       57.7080   10.1520   47.8710 C.3   301  8X8301      0.1156
     16  C54       56.7110   11.2520   48.2510 C.3   301  8X8301      0.0326
     17  C57       54.5700   15.3290   47.6350 C.3   301  8X8301      0.2488
     18  O58       53.4970   15.8360   48.5120 O.3   301  8X8301     -0.2113
     19  C66       55.7390   16.1250   48.0820 C.2   301  8X8301      0.2739
     20  O67       56.6850   16.0990   47.3350 O.2   301  8X8301     -0.2705
     21  N68       55.6160   16.7770   49.2850 N.am  301  8X8301     -0.1984
     22  C70       56.6320   17.5370   50.0300 C.3   301  8X8301      0.1415
     23  C73       56.8410   16.8530   51.3720 C.ar  301  8X8301     -0.0006
     24  C74       56.4190   17.5000   52.5580 C.ar  301  8X8301     -0.0026
     25  C76       57.3920   15.5690   51.4300 C.ar  301  8X8301     -0.0026
     26  C78       57.5410   14.9510   52.6810 C.ar  301  8X8301     -0.0003
     27  C80       57.1360   15.6050   53.8550 C.ar  301  8X8301     -0.0000
     28  C82       56.5650   16.8880   53.8070 C.ar  301  8X8301     -0.0003
@<TRIPOS>BOND
     1    13    12    2
     2    12    14   am
     3    12    11    1
     4    14    15    1
     5    10    11    1
     6    10     9    1
     7    11    16    1
     8    20    19    2
     9    17     9    1
    10    17    19    1
    11    17    18    1
    12     9     8    1
    13     8     6   am
    14    15    16    1
    15    19    21   am
    16     2     1    1
    17     5     6    1
    18     5     1    1
    19     6     7    2
    20    21    22    1
    21     1     3    1
    22     1     4    1
    23    22    23    1
    24    23    25   ar
    25    23    24   ar
    26    25    26   ar
    27    24    28   ar
    28    26    27   ar
    29    28    27   ar
