UUR
  -OEChem-02242320043D

 68 69  0     1  0  0  0  0  0999 V2000
    1.0260    0.7500    0.1060 N   0  0  0  0  0  0  0  0  0  0  0  0
   -1.5230    2.7290    2.0930 C   0  0  0  0  0  0  0  0  0  0  0  0
   -1.4670    1.9220    3.3910 C   0  0  0  0  0  0  0  0  0  0  0  0
   -1.6260    4.2200    2.4230 C   0  0  0  0  0  0  0  0  0  0  0  0
   -1.3950    0.7190   -0.0510 C   0  0  0  0  0  0  0  0  0  0  0  0
   -3.7180    0.0540   -0.3680 C   0  0  1  0  0  0  0  0  0  0  0  0
   -3.8520   -2.1670    0.7690 C   0  0  2  0  0  0  0  0  0  0  0  0
   -3.4450   -2.9510   -0.5010 C   0  0  0  0  0  0  0  0  0  0  0  0
    2.1680    0.5020    0.7780 C   0  0  0  0  0  0  0  0  0  0  0  0
   -4.7340   -3.1300    1.5320 C   0  0  0  0  0  0  0  0  0  0  0  0
   -3.5870   -4.4140   -0.0270 C   0  0  0  0  0  0  0  0  0  0  0  0
   -0.2150    1.0080    0.8400 C   0  0  2  0  0  0  0  0  0  0  0  0
   -0.2540    2.4740    1.2780 C   0  0  0  0  0  0  0  0  0  0  0  0
   -4.6340   -0.9070    0.3920 C   0  0  0  0  0  0  0  0  0  0  0  0
    2.1500    0.4010    1.9890 O   0  0  0  0  0  0  0  0  0  0  0  0
   -5.4820   -2.8200    2.4350 O   0  0  0  0  0  0  0  0  0  0  0  0
   -4.5090    1.2990   -0.7720 C   0  0  1  0  0  0  0  0  0  0  0  0
    4.5170    0.1000    0.8960 C   0  0  0  0  0  0  0  0  0  0  0  0
    5.7270   -0.0230   -0.0320 C   0  0  0  0  0  0  0  0  0  0  0  0
    8.4810   -0.4620   -0.2660 C   0  0  0  0  0  0  0  0  0  0  0  0
    8.1720   -0.2900   -1.6100 C   0  0  0  0  0  0  0  0  0  0  0  0
    9.1690   -0.3690   -2.5620 C   0  0  0  0  0  0  0  0  0  0  0  0
   10.4740   -0.6200   -2.1800 C   0  0  0  0  0  0  0  0  0  0  0  0
   10.7860   -0.7920   -0.8430 C   0  0  0  0  0  0  0  0  0  0  0  0
    9.7940   -0.7140    0.1140 C   0  0  0  0  0  0  0  0  0  0  0  0
   -2.5980    0.4440    0.4920 N   0  0  0  0  0  0  0  0  0  0  0  0
   -4.5700   -4.3790    1.0630 N   0  0  0  0  0  0  0  0  0  0  0  0
   -3.6300    2.2420   -1.3900 O   0  0  0  0  0  0  0  0  0  0  0  0
   -1.2630    0.7330   -1.2560 O   0  0  0  0  0  0  0  0  0  0  0  0
    3.3270    0.3660    0.1080 O   0  0  0  0  0  0  0  0  0  0  0  0
    7.2140   -0.3550    0.9530 S   0  0  0  0  0  0  0  0  0  0  0  0
   -5.8140    0.8340   -1.9420 S   0  0  0  0  0  0  0  0  0  0  0  0
    1.0270    0.7620   -0.8640 H   0  0  0  0  0  0  0  0  0  0  0  0
   -2.3940    2.4250    1.5130 H   0  0  0  0  0  0  0  0  0  0  0  0
   -2.3210    2.1810    4.0170 H   0  0  0  0  0  0  0  0  0  0  0  0
   -1.4960    0.8580    3.1590 H   0  0  0  0  0  0  0  0  0  0  0  0
   -0.5440    2.1530    3.9230 H   0  0  0  0  0  0  0  0  0  0  0  0
   -1.6660    4.7950    1.4980 H   0  0  0  0  0  0  0  0  0  0  0  0
   -2.5300    4.4020    3.0030 H   0  0  0  0  0  0  0  0  0  0  0  0
   -0.7540    4.5240    3.0030 H   0  0  0  0  0  0  0  0  0  0  0  0
   -3.3350   -0.4400   -1.2620 H   0  0  0  0  0  0  0  0  0  0  0  0
   -2.9710   -1.9090    1.3570 H   0  0  0  0  0  0  0  0  0  0  0  0
   -4.1260   -2.7400   -1.3250 H   0  0  0  0  0  0  0  0  0  0  0  0
   -2.4150   -2.7300   -0.7810 H   0  0  0  0  0  0  0  0  0  0  0  0
   -3.9500   -5.0410   -0.8420 H   0  0  0  0  0  0  0  0  0  0  0  0
   -2.6310   -4.7870    0.3400 H   0  0  0  0  0  0  0  0  0  0  0  0
   -0.2570    0.3650    1.7190 H   0  0  0  0  0  0  0  0  0  0  0  0
   -0.2520    3.1160    0.3970 H   0  0  0  0  0  0  0  0  0  0  0  0
    0.6210    2.6930    1.8900 H   0  0  0  0  0  0  0  0  0  0  0  0
   -4.9990   -0.4220    1.2980 H   0  0  0  0  0  0  0  0  0  0  0  0
   -5.4790   -1.1800   -0.2400 H   0  0  0  0  0  0  0  0  0  0  0  0
   -4.9580    1.7480    0.1140 H   0  0  0  0  0  0  0  0  0  0  0  0
    4.3870   -0.8310    1.4480 H   0  0  0  0  0  0  0  0  0  0  0  0
    4.6790    0.9180    1.5970 H   0  0  0  0  0  0  0  0  0  0  0  0
    5.5660   -0.8410   -0.7340 H   0  0  0  0  0  0  0  0  0  0  0  0
    5.8580    0.9080   -0.5840 H   0  0  0  0  0  0  0  0  0  0  0  0
    7.1530   -0.0940   -1.9090 H   0  0  0  0  0  0  0  0  0  0  0  0
    8.9290   -0.2350   -3.6060 H   0  0  0  0  0  0  0  0  0  0  0  0
   11.2520   -0.6820   -2.9270 H   0  0  0  0  0  0  0  0  0  0  0  0
   11.8060   -0.9890   -0.5490 H   0  0  0  0  0  0  0  0  0  0  0  0
   10.0380   -0.8480    1.1580 H   0  0  0  0  0  0  0  0  0  0  0  0
   -2.7220    0.5040    1.4520 H   0  0  0  0  0  0  0  0  0  0  0  0
   -5.0410   -5.1570    1.4010 H   0  0  0  0  0  0  0  0  0  0  0  0
   -2.9050    2.5360   -0.8210 H   0  0  0  0  0  0  0  0  0  0  0  0
   -5.3230   -0.1020   -2.8920 O   0  0  0  0  0  0  0  0  0  0  0  0
   -6.8050    0.0350   -1.1070 O   0  0  0  0  0  0  0  0  0  0  0  0
   -6.5470    1.9800   -2.3540 O   0  0  0  0  0  0  0  0  0  0  0  0
   -7.5700   -0.2860   -1.6050 H   0  0  0  0  0  0  0  0  0  0  0  0
  2  3  1  0  0  0  0
 21 22  2  0  0  0  0
 20 21  1  0  0  0  0
  2  4  1  0  0  0  0
  2 13  1  0  0  0  0
 20 31  1  0  0  0  0
 19 31  1  0  0  0  0
 22 23  1  0  0  0  0
 20 25  2  0  0  0  0
 23 24  2  0  0  0  0
 24 25  1  0  0  0  0
 12 13  1  0  0  0  0
 18 19  1  0  0  0  0
  1 12  1  0  0  0  0
  1  9  1  0  0  0  0
  9 30  1  0  0  0  0
 18 30  1  0  0  0  0
  5 12  1  0  0  0  0
  9 15  2  0  0  0  0
  5 29  2  0  0  0  0
  5 26  1  0  0  0  0
  6 26  1  0  0  0  0
 17 32  1  0  0  0  0
  6 17  1  0  0  0  0
  6 14  1  0  0  0  0
 17 28  1  0  0  0  0
  7 14  1  0  0  0  0
  7  8  1  0  0  0  0
  7 10  1  0  0  0  0
  8 11  1  0  0  0  0
 10 16  2  0  0  0  0
 10 27  1  0  0  0  0
 11 27  1  0  0  0  0
  1 33  1  0  0  0  0
  2 34  1  0  0  0  0
  3 35  1  0  0  0  0
  3 36  1  0  0  0  0
  3 37  1  0  0  0  0
  4 38  1  0  0  0  0
  4 39  1  0  0  0  0
  4 40  1  0  0  0  0
  6 41  1  0  0  0  0
  7 42  1  0  0  0  0
  8 43  1  0  0  0  0
  8 44  1  0  0  0  0
 11 45  1  0  0  0  0
 11 46  1  0  0  0  0
 12 47  1  0  0  0  0
 13 48  1  0  0  0  0
 13 49  1  0  0  0  0
 14 50  1  0  0  0  0
 14 51  1  0  0  0  0
 17 52  1  0  0  0  0
 18 53  1  0  0  0  0
 18 54  1  0  0  0  0
 19 55  1  0  0  0  0
 19 56  1  0  0  0  0
 21 57  1  0  0  0  0
 22 58  1  0  0  0  0
 23 59  1  0  0  0  0
 24 60  1  0  0  0  0
 25 61  1  0  0  0  0
 26 62  1  0  0  0  0
 27 63  1  0  0  0  0
 28 64  1  0  0  0  0
 32 65  2  0  0  0  0
 32 66  1  0  0  0  0
 32 67  2  0  0  0  0
 66 68  1  0  0  0  0
M  END
> <OPENEYE_ISO_SMILES>
CC(C)C[C@@H](C(=O)N[C@@H](C[C@@H]1CCNC1=O)[C@@H](O)S(=O)(=O)O)NC(=O)OCCSc2ccccc2

> <OPENEYE_INCHI>
InChI=1S/C22H33N3O8S2/c1-14(2)12-17(25-22(29)33-10-11-34-16-6-4-3-5-7-16)20(27)24-18(21(28)35(30,31)32)13-15-8-9-23-19(15)26/h3-7,14-15,17-18,21,28H,8-13H2,1-2H3,(H,23,26)(H,24,27)(H,25,29)(H,30,31,32)/t15-,17-,18-,21-/m0/s1

> <OPENEYE_INCHIKEY>
AUIXPEVQDXBTHO-DBSRCYSRSA-N

> <FORMULA>
C22H33N3O8S2

$$$$
