POL
  -OEChem-02242320033D

 12 11  0     0  0  0  0  0  0999 V2000
    0.1730    0.0000   -1.7930 O   0  0  0  0  0  0  0  0  0  0  0  0
   -0.4920    0.0000   -0.5280 C   0  0  0  0  0  0  0  0  0  0  0  0
    0.5460    0.0000    0.5940 C   0  0  0  0  0  0  0  0  0  0  0  0
   -0.1660    0.0000    1.9480 C   0  0  0  0  0  0  0  0  0  0  0  0
   -0.5150    0.0000   -2.4710 H   0  0  0  0  0  0  0  0  0  0  0  0
   -1.1160   -0.8900   -0.4460 H   0  0  0  0  0  0  0  0  0  0  0  0
   -1.1160    0.8900   -0.4460 H   0  0  0  0  0  0  0  0  0  0  0  0
    1.1700    0.8900    0.5120 H   0  0  0  0  0  0  0  0  0  0  0  0
    1.1700   -0.8900    0.5120 H   0  0  0  0  0  0  0  0  0  0  0  0
    0.5730    0.0000    2.7480 H   0  0  0  0  0  0  0  0  0  0  0  0
   -0.7900    0.8900    2.0300 H   0  0  0  0  0  0  0  0  0  0  0  0
   -0.7900   -0.8900    2.0300 H   0  0  0  0  0  0  0  0  0  0  0  0
  1  2  1  0  0  0  0
  1  5  1  0  0  0  0
  2  3  1  0  0  0  0
  2  6  1  0  0  0  0
  2  7  1  0  0  0  0
  3  4  1  0  0  0  0
  3  8  1  0  0  0  0
  3  9  1  0  0  0  0
  4 10  1  0  0  0  0
  4 11  1  0  0  0  0
  4 12  1  0  0  0  0
M  END
> <OPENEYE_ISO_SMILES>
CCCO

> <OPENEYE_INCHI>
InChI=1S/C3H8O/c1-2-3-4/h4H,2-3H2,1H3

> <OPENEYE_INCHIKEY>
BDERNNFJNOPAEC-UHFFFAOYSA-N

> <FORMULA>
C3H8O

$$$$
