@<TRIPOS>MOLECULE
/home/pku/3cl/gett_pdb/7TQ5/7TQ5_mol2/ligand/7TQ5_IRW.pdb
 34 36 0 0 0
SMALL
GASTEIGER

@<TRIPOS>ATOM
      1  C01        8.9420   18.4660   28.3940 C.3   401  IRW401      0.2036
      2  C03        8.7370   19.8500   27.8010 C.3   401  IRW401      0.1287
      3  C04        7.7220   19.7710   26.5840 C.3   401  IRW401      0.0335
      4  C05        7.2770   21.1040   26.0040 C.3   401  IRW401      0.0818
      5  C06        6.3390   20.9670   24.7760 C.2   401  IRW401      0.2410
      6  C08        5.3440   22.6720   26.1710 C.3   401  IRW401      0.1156
      7  C09        6.4860   22.0080   26.9810 C.3   401  IRW401      0.0326
      8  C12       10.4130   21.7090   27.6120 C.2   401  IRW401      0.2614
      9  C13       11.8160   22.1410   27.0620 C.3   401  IRW401      0.1761
     10  C14       12.8720   21.9100   28.1600 C.3   401  IRW401      0.0312
     11  C15       14.2810   22.2530   27.7120 C.3   401  IRW401      0.0022
     12  C16       15.2910   22.2470   28.9110 C.3   401  IRW401      0.0001
     13  C17       14.8000   21.3630   26.5890 C.3   401  IRW401      0.0001
     14  C19       10.6870   24.0400   25.9460 C.2   401  IRW401      0.4215
     15  C21        9.5320   25.9040   24.9640 C.3   401  IRW401      0.2104
     16  C22        9.5420   27.4220   24.7680 C.3   401  IRW401      0.0483
     17  C23       10.8670   28.2330   24.5060 C.3   401  IRW401      0.0261
     18  C24        9.8060   28.1380   23.4680 C.3   401  IRW401      0.0085
     19  C25       11.4000   29.5150   25.1120 C.ar  401  IRW401     -0.0222
     20  C26       12.4750   29.4150   26.0340 C.ar  401  IRW401     -0.0012
     21  C27       13.0460   30.5090   26.6870 C.ar  401  IRW401      0.0366
     22  C28       12.5760   31.8210   26.4640 C.ar  401  IRW401      0.1387
     23  C30       14.5170   33.2290   26.9840 C.3   401  IRW401      0.2525
     24  C31       11.4950   31.9450   25.5620 C.ar  401  IRW401      0.0366
     25  C32       10.9360   30.8230   24.9260 C.ar  401  IRW401     -0.0012
     26  N07        5.2910   21.8810   24.9370 N.am  401  IRW401     -0.2054
     27  N11       10.0150   20.3900   27.3580 N.am  401  IRW401     -0.2030
     28  N18       11.7220   23.5610   26.7010 N.am  401  IRW401     -0.1611
     29  O02        7.7180   17.9450   28.7940 O.3   401  IRW401     -0.2185
     30  O10        6.4980   20.2400   23.8570 O.2   401  IRW401     -0.2734
     31  O20       10.4100   25.3980   25.9800 O.3   401  IRW401     -0.4335
     32  O29       13.1360   32.9100   27.1210 O.3   401  IRW401     -0.4714
     33  O33       10.0190   23.2910   25.2670 O.2   401  IRW401     -0.2246
     34  O34        9.7370   22.5010   28.1970 O.2   401  IRW401     -0.2715
@<TRIPOS>BOND
     1    18    17    1
     2    18    16    1
     3    30     5    2
     4    17    16    1
     5    17    19    1
     6    16    15    1
     7     5    26   am
     8     5     4    1
     9    25    19   ar
    10    25    24   ar
    11    26     6    1
    12    15    31    1
    13    19    20   ar
    14    33    14    2
    15    24    22   ar
    16    14    31    1
    17    14    28   am
    18     4     3    1
    19     4     7    1
    20    20    21   ar
    21     6     7    1
    22    22    21   ar
    23    22    32    1
    24     3     2    1
    25    13    11    1
    26    28     9    1
    27    23    32    1
    28     9     8    1
    29     9    10    1
    30    27     8   am
    31    27     2    1
    32     8    34    2
    33    11    10    1
    34    11    12    1
    35     2     1    1
    36     1    29    1
