YHJ
  -OEChem-02242320043D

 62 65  0     1  0  0  0  0  0999 V2000
    5.8160    1.3920   -1.0510 C   0  0  0  0  0  0  0  0  0  0  0  0
    0.5180   -3.2260    0.3530 C   0  0  2  0  0  0  0  0  0  0  0  0
   -0.0230   -4.6630   -1.5870 C   0  0  0  0  0  0  0  0  0  0  0  0
   -0.7600   -2.6800   -0.3570 C   0  0  2  0  0  0  0  0  0  0  0  0
   -3.2620    0.4870    1.6330 C   0  0  2  0  0  0  0  0  0  0  0  0
   -4.4860    1.2040    1.0600 C   0  0  0  0  0  0  0  0  0  0  0  0
   -5.2430    3.1330   -0.3870 C   0  0  0  0  0  0  0  0  0  0  0  0
    0.9250    1.2640   -0.3690 O   0  0  0  0  0  0  0  0  0  0  0  0
    1.5720    0.2410   -0.2630 C   0  0  0  0  0  0  0  0  0  0  0  0
    2.9090    0.3020   -0.1210 O   0  0  0  0  0  0  0  0  0  0  0  0
    3.5110    1.6240   -0.1030 C   0  0  0  0  0  0  0  0  0  0  0  0
    5.0030    1.4940    0.0620 C   0  0  0  0  0  0  0  0  0  0  0  0
    5.5590    1.4770    1.3280 C   0  0  0  0  0  0  0  0  0  0  0  0
    6.9280    1.3580    1.4800 C   0  0  0  0  0  0  0  0  0  0  0  0
    7.7410    1.2560    0.3660 C   0  0  0  0  0  0  0  0  0  0  0  0
    7.1850    1.2730   -0.8990 C   0  0  0  0  0  0  0  0  0  0  0  0
    0.9510   -0.9540   -0.2870 N   0  0  0  0  0  0  0  0  0  0  0  0
    1.6100   -2.2660   -0.1690 C   0  0  0  0  0  0  0  0  0  0  0  0
    0.7370   -4.6220   -0.2510 C   0  0  0  0  0  0  0  0  0  0  0  0
   -0.6520   -3.2710   -1.7810 C   0  0  0  0  0  0  0  0  0  0  0  0
   -0.4960   -1.1640   -0.4360 C   0  0  2  0  0  0  0  0  0  0  0  0
   -1.2310   -0.4590    0.6750 C   0  0  0  0  0  0  0  0  0  0  0  0
   -2.5470   -0.1980    0.5530 N   0  0  0  0  0  0  0  0  0  0  0  0
   -4.0300    2.3120    0.1090 C   0  0  2  0  0  0  0  0  0  0  0  0
   -5.5850    2.4200   -1.7140 C   0  0  0  0  0  0  0  0  0  0  0  0
   -4.3320    1.7980   -2.1580 N   0  0  0  0  0  0  0  0  0  0  0  0
   -3.4430    1.7190   -1.1530 C   0  0  0  0  0  0  0  0  0  0  0  0
   -2.3310    1.2430   -1.2440 O   0  0  0  0  0  0  0  0  0  0  0  0
   -3.7120   -0.5370    2.6760 C   0  0  0  0  0  0  0  0  0  0  0  0
   -4.6690   -1.4230    2.0920 O   0  0  0  0  0  0  0  0  0  0  0  0
   -0.6370   -0.1270    1.6800 O   0  0  0  0  0  0  0  0  0  0  0  0
    5.3810    1.4010   -2.0400 H   0  0  0  0  0  0  0  0  0  0  0  0
    0.4370   -3.2300    1.4400 H   0  0  0  0  0  0  0  0  0  0  0  0
    0.6680   -4.8770   -2.4020 H   0  0  0  0  0  0  0  0  0  0  0  0
   -0.8030   -5.4240   -1.5490 H   0  0  0  0  0  0  0  0  0  0  0  0
   -1.6860   -2.9310    0.1590 H   0  0  0  0  0  0  0  0  0  0  0  0
   -2.6000    1.2160    2.1010 H   0  0  0  0  0  0  0  0  0  0  0  0
   -5.1030    0.4890    0.5150 H   0  0  0  0  0  0  0  0  0  0  0  0
   -5.0660    1.6390    1.8740 H   0  0  0  0  0  0  0  0  0  0  0  0
   -6.0730    3.0660    0.3170 H   0  0  0  0  0  0  0  0  0  0  0  0
   -4.9660    4.1720   -0.5630 H   0  0  0  0  0  0  0  0  0  0  0  0
    3.2930    2.1350   -1.0410 H   0  0  0  0  0  0  0  0  0  0  0  0
    3.1020    2.1980    0.7280 H   0  0  0  0  0  0  0  0  0  0  0  0
    4.9240    1.5560    2.1980 H   0  0  0  0  0  0  0  0  0  0  0  0
    7.3630    1.3450    2.4680 H   0  0  0  0  0  0  0  0  0  0  0  0
    8.8100    1.1630    0.4850 H   0  0  0  0  0  0  0  0  0  0  0  0
    7.8200    1.1930   -1.7690 H   0  0  0  0  0  0  0  0  0  0  0  0
    2.4350   -2.2110    0.5420 H   0  0  0  0  0  0  0  0  0  0  0  0
    1.9700   -2.5970   -1.1420 H   0  0  0  0  0  0  0  0  0  0  0  0
    1.8000   -4.7890   -0.4240 H   0  0  0  0  0  0  0  0  0  0  0  0
    0.3440   -5.3830    0.4220 H   0  0  0  0  0  0  0  0  0  0  0  0
   -0.0090   -2.6480   -2.4020 H   0  0  0  0  0  0  0  0  0  0  0  0
   -1.6410   -3.3620   -2.2290 H   0  0  0  0  0  0  0  0  0  0  0  0
   -0.8270   -0.7810   -1.4010 H   0  0  0  0  0  0  0  0  0  0  0  0
   -3.0220   -0.4630   -0.2510 H   0  0  0  0  0  0  0  0  0  0  0  0
   -3.3060    2.9610    0.6010 H   0  0  0  0  0  0  0  0  0  0  0  0
   -6.3460    1.6580   -1.5480 H   0  0  0  0  0  0  0  0  0  0  0  0
   -5.9290    3.1430   -2.4530 H   0  0  0  0  0  0  0  0  0  0  0  0
   -4.1660    1.4830   -3.0600 H   0  0  0  0  0  0  0  0  0  0  0  0
   -2.8500   -1.1090    3.0200 H   0  0  0  0  0  0  0  0  0  0  0  0
   -4.1650   -0.0190    3.5220 H   0  0  0  0  0  0  0  0  0  0  0  0
   -4.9990   -2.1010    2.6980 H   0  0  0  0  0  0  0  0  0  0  0  0
  1 12  2  0  0  0  0
  1 16  1  0  0  0  0
  2  4  1  0  0  0  0
  2 18  1  0  0  0  0
  2 19  1  0  0  0  0
  3 19  1  0  0  0  0
  3 20  1  0  0  0  0
  4 21  1  0  0  0  0
  5  6  1  0  0  0  0
  5 23  1  0  0  0  0
  5 29  1  0  0  0  0
  6 24  1  0  0  0  0
  7 24  1  0  0  0  0
  7 25  1  0  0  0  0
  8  9  2  0  0  0  0
  9 10  1  0  0  0  0
  9 17  1  0  0  0  0
 10 11  1  0  0  0  0
 11 12  1  0  0  0  0
 12 13  1  0  0  0  0
 13 14  2  0  0  0  0
 14 15  1  0  0  0  0
 15 16  2  0  0  0  0
 17 18  1  0  0  0  0
 17 21  1  0  0  0  0
 21 22  1  0  0  0  0
 22 23  1  0  0  0  0
 22 31  2  0  0  0  0
 24 27  1  0  0  0  0
 25 26  1  0  0  0  0
 26 27  1  0  0  0  0
 27 28  2  0  0  0  0
 29 30  1  0  0  0  0
  1 32  1  0  0  0  0
  2 33  1  0  0  0  0
  3 34  1  0  0  0  0
  3 35  1  0  0  0  0
  4 36  1  0  0  0  0
  5 37  1  0  0  0  0
  6 38  1  0  0  0  0
  6 39  1  0  0  0  0
  7 40  1  0  0  0  0
  7 41  1  0  0  0  0
 11 42  1  0  0  0  0
 11 43  1  0  0  0  0
 13 44  1  0  0  0  0
 14 45  1  0  0  0  0
 15 46  1  0  0  0  0
 16 47  1  0  0  0  0
 18 48  1  0  0  0  0
 18 49  1  0  0  0  0
 19 50  1  0  0  0  0
 19 51  1  0  0  0  0
 20 52  1  0  0  0  0
 20 53  1  0  0  0  0
 21 54  1  0  0  0  0
 23 55  1  0  0  0  0
 24 56  1  0  0  0  0
 25 57  1  0  0  0  0
 25 58  1  0  0  0  0
 26 59  1  0  0  0  0
 29 60  1  0  0  0  0
 29 61  1  0  0  0  0
 30 62  1  0  0  0  0
  4 20  1  0  0  0  0
M  END
> <OPENEYE_ISO_SMILES>
c1ccc(cc1)COC(=O)N2C[C@@H]3CCC[C@@H]3[C@H]2C(=O)N[C@@H](C[C@@H]4CCNC4=O)CO

> <OPENEYE_INCHI>
InChI=1S/C23H31N3O5/c27-13-18(11-16-9-10-24-21(16)28)25-22(29)20-19-8-4-7-17(19)12-26(20)23(30)31-14-15-5-2-1-3-6-15/h1-3,5-6,16-20,27H,4,7-14H2,(H,24,28)(H,25,29)/t16-,17-,18-,19-,20-/m0/s1

> <OPENEYE_INCHIKEY>
BQHAUUUZCGWWEE-HVTWWXFQSA-N

> <FORMULA>
C23H31N3O5

$$$$
