@<TRIPOS>MOLECULE
/home/pku/3cl/gett_pdb/7LW4/7LW4_mol2/ligand/7LW4_MES.pdb
 25 25 0 0 0
SMALL
GASTEIGER

@<TRIPOS>ATOM
      1  O1       -87.3690   74.4300  -20.0540 O.3   301  MES301     -0.3834
      2  C2       -88.3750   73.4630  -20.3660 C.3   301  MES301      0.0329
      3  C3       -89.1730   72.9890  -19.1620 C.3   301  MES301     -0.0664
      4  N4       -89.8050   74.1330  -18.4160 N.4   301  MES301      0.3837
      5  C5       -88.7080   75.1090  -18.1140 C.3   301  MES301     -0.0664
      6  C6       -87.9720   75.5300  -19.3730 C.3   301  MES301      0.0329
      7  C7       -90.5980   73.6780  -17.2150 C.3   301  MES301     -0.0701
      8  C8       -91.4470   74.7490  -16.4990 C.3   301  MES301      0.0581
      9  S        -92.5840   74.1540  -15.2150 S.3   301  MES301      0.0101
     10  O1S      -93.6730   73.5030  -15.9010 O.3   301  MES301     -0.0702
     11  O2S      -93.0330   75.3190  -14.4880 O.3   301  MES301     -0.0702
     12  O3S      -91.8270   73.2490  -14.3880 O.3   301  MES301     -0.0702
     13  H21      -87.9470   72.6920  -20.7800 H     301  MES301      0.0541
     14  H22      -88.9900   73.8540  -21.0140 H     301  MES301      0.0541
     15  H31      -88.5870   72.5080  -18.5510 H     301  MES301      0.0081
     16  H32      -89.8790   72.3850  -19.4550 H     301  MES301      0.0081
     17  HN4      -90.4220   74.5550  -18.9400 H     301  MES301     -0.0816
     18  H51      -88.0840   74.6920  -17.4920 H     301  MES301      0.0081
     19  H52      -89.0980   75.8910  -17.6840 H     301  MES301      0.0081
     20  H61      -88.6000   75.9680  -19.9770 H     301  MES301      0.0541
     21  H62      -87.2790   76.1730  -19.1360 H     301  MES301      0.0541
     22  H71      -89.9230   73.2810  -16.5600 H     301  MES301      0.0075
     23  H72      -91.2040   72.9240  -17.5420 H     301  MES301      0.0075
     24  H81      -91.9970   75.2260  -17.1470 H     301  MES301      0.0486
     25  H82      -90.8640   75.3980  -16.0640 H     301  MES301      0.0486
@<TRIPOS>BOND
     1    14     2    1
     2    13     2    1
     3     2     1    1
     4     2     3    1
     5     1     6    1
     6    20     6    1
     7    16     3    1
     8     6    21    1
     9     6     5    1
    10     3    15    1
    11     3     4    1
    12    17     4    1
    13     4     5    1
    14     4     7    1
    15     5    19    1
    16     5    18    1
    17    23     7    1
    18     7    22    1
    19     7     8    1
    20    24     8    1
    21     8    25    1
    22     8     9    1
    23    10     9    1
    24     9    11    1
    25     9    12    1
