QT0
  -OEChem-02242320033D

 41 45  0     1  0  0  0  0  0999 V2000
   -5.5100    1.2250    0.9800 C   0  0  0  0  0  0  0  0  0  0  0  0
   -3.6620    0.4330    0.1150 C   0  0  0  0  0  0  0  0  0  0  0  0
   -2.4040    0.3330   -0.7090 C   0  0  2  0  0  0  0  0  0  0  0  0
   -2.7520   -0.1610   -2.1160 C   0  0  0  0  0  0  0  0  0  0  0  0
   -1.4620   -0.3170   -2.9270 C   0  0  0  0  0  0  0  0  0  0  0  0
   -0.5250   -1.2860   -2.2040 C   0  0  0  0  0  0  0  0  0  0  0  0
   -1.4390   -0.6560   -0.0500 C   0  0  0  0  0  0  0  0  0  0  0  0
    4.2960    2.4890    0.0990 C   0  0  0  0  0  0  0  0  0  0  0  0
    4.7150    1.2850    0.6300 C   0  0  0  0  0  0  0  0  0  0  0  0
    3.8740    0.1790    0.5970 C   0  0  0  0  0  0  0  0  0  0  0  0
    2.8960   -1.8570    0.7780 C   0  0  0  0  0  0  0  0  0  0  0  0
    1.9660   -1.0220    0.1400 C   0  0  0  0  0  0  0  0  0  0  0  0
    0.7250   -1.5550   -0.2310 C   0  0  0  0  0  0  0  0  0  0  0  0
    1.3800   -3.5860    0.6410 C   0  0  0  0  0  0  0  0  0  0  0  0
    2.5990    0.3000    0.0210 C   0  0  0  0  0  0  0  0  0  0  0  0
    2.1880    1.5200   -0.5110 C   0  0  0  0  0  0  0  0  0  0  0  0
    3.0330    2.6080   -0.4660 C   0  0  0  0  0  0  0  0  0  0  0  0
    5.1180    3.5600    0.1330 F   0  0  0  0  0  0  0  0  0  0  0  0
    4.0270   -1.1230    1.0440 N   0  0  0  0  0  0  0  0  0  0  0  0
   -0.2220   -0.7690   -0.8630 N   0  0  1  0  0  0  0  0  0  0  0  0
   -4.1090   -0.4810    0.9120 N   0  0  0  0  0  0  0  0  0  0  0  0
   -5.2970   -0.0080    1.4870 N   0  0  0  0  0  0  0  0  0  0  0  0
    0.4790   -2.8350    0.0390 N   0  0  0  0  0  0  0  0  0  0  0  0
    2.5580   -3.1260    1.0060 N   0  0  0  0  0  0  0  0  0  0  0  0
   -4.4990    1.4890    0.1360 O   0  0  0  0  0  0  0  0  0  0  0  0
   -6.4460    1.9590    1.2360 O   0  0  0  0  0  0  0  0  0  0  0  0
   -1.9330    1.3140   -0.7730 H   0  0  0  0  0  0  0  0  0  0  0  0
   -3.2590   -1.1230   -2.0490 H   0  0  0  0  0  0  0  0  0  0  0  0
   -3.4050    0.5620   -2.6050 H   0  0  0  0  0  0  0  0  0  0  0  0
   -1.7000   -0.7080   -3.9150 H   0  0  0  0  0  0  0  0  0  0  0  0
   -0.9760    0.6540   -3.0260 H   0  0  0  0  0  0  0  0  0  0  0  0
   -1.0070   -2.2600   -2.1170 H   0  0  0  0  0  0  0  0  0  0  0  0
    0.4000   -1.3880   -2.7710 H   0  0  0  0  0  0  0  0  0  0  0  0
   -1.1790   -0.3000    0.9470 H   0  0  0  0  0  0  0  0  0  0  0  0
   -1.9170   -1.6330    0.0270 H   0  0  0  0  0  0  0  0  0  0  0  0
    5.6980    1.2030    1.0700 H   0  0  0  0  0  0  0  0  0  0  0  0
    1.1420   -4.6200    0.8430 H   0  0  0  0  0  0  0  0  0  0  0  0
    1.2080    1.6140   -0.9550 H   0  0  0  0  0  0  0  0  0  0  0  0
    2.7130    3.5550   -0.8740 H   0  0  0  0  0  0  0  0  0  0  0  0
    4.8200   -1.4690    1.4820 H   0  0  0  0  0  0  0  0  0  0  0  0
   -5.8570   -0.4750    2.1270 H   0  0  0  0  0  0  0  0  0  0  0  0
  8 18  1  0  0  0  0
  8  9  2  0  0  0  0
  9 10  1  0  0  0  0
 11 19  1  0  0  0  0
 11 12  2  0  0  0  0
 12 13  1  0  0  0  0
  6 20  1  0  0  0  0
  5  6  1  0  0  0  0
  4  5  1  0  0  0  0
  3  4  1  0  0  0  0
  2 21  2  0  0  0  0
 21 22  1  0  0  0  0
  1 22  1  0  0  0  0
  1 25  1  0  0  0  0
  1 26  2  0  0  0  0
  2  3  1  0  0  0  0
  3  7  1  0  0  0  0
 13 20  1  0  0  0  0
 13 23  2  0  0  0  0
 14 23  1  0  0  0  0
 14 24  2  0  0  0  0
 10 19  1  0  0  0  0
 10 15  2  0  0  0  0
 15 16  1  0  0  0  0
 16 17  2  0  0  0  0
  8 17  1  0  0  0  0
 11 24  1  0  0  0  0
 12 15  1  0  0  0  0
  7 20  1  0  0  0  0
  2 25  1  0  0  0  0
  3 27  1  0  0  0  0
  4 28  1  0  0  0  0
  4 29  1  0  0  0  0
  5 30  1  0  0  0  0
  5 31  1  0  0  0  0
  6 32  1  0  0  0  0
  6 33  1  0  0  0  0
  7 34  1  0  0  0  0
  7 35  1  0  0  0  0
  9 36  1  0  0  0  0
 14 37  1  0  0  0  0
 16 38  1  0  0  0  0
 17 39  1  0  0  0  0
 19 40  1  0  0  0  0
 22 41  1  0  0  0  0
M  END
> <OPENEYE_ISO_SMILES>
c1cc2c(cc1F)[nH]c3c2c(ncn3)[N@]4CCC[C@H](C4)c5n[nH]c(=O)o5

> <OPENEYE_INCHI>
InChI=1S/C17H15FN6O2/c18-10-3-4-11-12(6-10)21-14-13(11)15(20-8-19-14)24-5-1-2-9(7-24)16-22-23-17(25)26-16/h3-4,6,8-9H,1-2,5,7H2,(H,23,25)(H,19,20,21)/t9-/m1/s1

> <OPENEYE_INCHIKEY>
HVWUCQLKBDJYJU-SECBINFHSA-N

> <FORMULA>
C17H15FN6O2

$$$$
