V18
  -OEChem-02242320043D

 43 47  0     0  0  0  0  0  0999 V2000
   -3.6580   -0.1670   -0.2890 C   0  0  0  0  0  0  0  0  0  0  0  0
    4.2260    0.2470    0.4340 C   0  0  0  0  0  0  0  0  0  0  0  0
   -4.8250    0.2510    0.6070 C   0  0  0  0  0  0  0  0  0  0  0  0
   -6.1730   -0.3590    0.1880 C   0  0  0  0  0  0  0  0  0  0  0  0
    2.0310   -0.7610    0.1690 C   0  0  0  0  0  0  0  0  0  0  0  0
   -6.8030    1.0040    0.5170 C   0  0  0  0  0  0  0  0  0  0  0  0
   -5.4210    1.6210    0.2440 C   0  0  0  0  0  0  0  0  0  0  0  0
   -2.7280   -1.2100    0.3570 C   0  0  0  0  0  0  0  0  0  0  0  0
   -0.3230   -0.3300    0.5970 C   0  0  0  0  0  0  0  0  0  0  0  0
    2.5590   -1.9070    0.6970 C   0  0  0  0  0  0  0  0  0  0  0  0
    4.6630   -0.9760    0.9680 C   0  0  0  0  0  0  0  0  0  0  0  0
   -1.0940   -0.8750   -1.5560 N   0  0  0  0  0  0  0  0  0  0  0  0
    0.6880   -0.7040   -0.2180 N   0  0  0  0  0  0  0  0  0  0  0  0
   -2.4680    0.8100   -0.2470 C   0  0  0  0  0  0  0  0  0  0  0  0
    3.8270   -1.9820    1.0750 N   0  0  0  0  0  0  0  0  0  0  0  0
    0.9640   -1.3770   -2.3520 O   0  0  0  0  0  0  0  0  0  0  0  0
    0.2430   -1.0130   -1.4440 C   0  0  0  0  0  0  0  0  0  0  0  0
   -1.5660   -0.4230   -0.2470 C   0  0  0  0  0  0  0  0  0  0  0  0
   -0.2450    0.0070    1.7590 O   0  0  0  0  0  0  0  0  0  0  0  0
    5.0830    1.3500    0.3000 C   0  0  0  0  0  0  0  0  0  0  0  0
    4.6020    2.5140   -0.2200 C   0  0  0  0  0  0  0  0  0  0  0  0
    3.2730    2.6280   -0.6220 C   0  0  0  0  0  0  0  0  0  0  0  0
    2.4130    1.5760   -0.5070 C   0  0  0  0  0  0  0  0  0  0  0  0
    2.8720    0.3640    0.0230 C   0  0  0  0  0  0  0  0  0  0  0  0
   -3.9730   -0.4280   -1.2990 H   0  0  0  0  0  0  0  0  0  0  0  0
   -4.6050    0.1380    1.6690 H   0  0  0  0  0  0  0  0  0  0  0  0
   -6.2240   -0.6200   -0.8690 H   0  0  0  0  0  0  0  0  0  0  0  0
   -6.5100   -1.1650    0.8400 H   0  0  0  0  0  0  0  0  0  0  0  0
   -7.5680    1.3150   -0.1940 H   0  0  0  0  0  0  0  0  0  0  0  0
   -7.1250    1.0970    1.5540 H   0  0  0  0  0  0  0  0  0  0  0  0
   -5.1510    2.4140    0.9410 H   0  0  0  0  0  0  0  0  0  0  0  0
   -5.2670    1.9020   -0.7980 H   0  0  0  0  0  0  0  0  0  0  0  0
   -2.7450   -1.1970    1.4470 H   0  0  0  0  0  0  0  0  0  0  0  0
   -2.8400   -2.2120   -0.0580 H   0  0  0  0  0  0  0  0  0  0  0  0
    1.9240   -2.7730    0.8130 H   0  0  0  0  0  0  0  0  0  0  0  0
    5.6870   -1.0890    1.2910 H   0  0  0  0  0  0  0  0  0  0  0  0
   -1.6330   -1.0410   -2.3450 H   0  0  0  0  0  0  0  0  0  0  0  0
   -2.3730    1.4220   -1.1440 H   0  0  0  0  0  0  0  0  0  0  0  0
   -2.4140    1.3940    0.6720 H   0  0  0  0  0  0  0  0  0  0  0  0
    6.1150    1.2770    0.6080 H   0  0  0  0  0  0  0  0  0  0  0  0
    5.2630    3.3630   -0.3220 H   0  0  0  0  0  0  0  0  0  0  0  0
    2.9190    3.5620   -1.0300 H   0  0  0  0  0  0  0  0  0  0  0  0
    1.3850    1.6780   -0.8220 H   0  0  0  0  0  0  0  0  0  0  0  0
 11 15  2  0  0  0  0
 10 15  1  0  0  0  0
  2 11  1  0  0  0  0
  5 10  2  0  0  0  0
  2 20  2  0  0  0  0
  2 24  1  0  0  0  0
 20 21  1  0  0  0  0
  5 24  1  0  0  0  0
  5 13  1  0  0  0  0
 23 24  2  0  0  0  0
 21 22  2  0  0  0  0
  9 19  2  0  0  0  0
  9 13  1  0  0  0  0
 13 17  1  0  0  0  0
  9 18  1  0  0  0  0
 22 23  1  0  0  0  0
 16 17  2  0  0  0  0
 12 17  1  0  0  0  0
  8 18  1  0  0  0  0
  1  8  1  0  0  0  0
 12 18  1  0  0  0  0
 14 18  1  0  0  0  0
  3  4  1  0  0  0  0
  4  6  1  0  0  0  0
  1  3  1  0  0  0  0
  1 14  1  0  0  0  0
  3  7  1  0  0  0  0
  6  7  1  0  0  0  0
  1 25  1  0  0  0  0
  3 26  1  0  0  0  0
  4 27  1  0  0  0  0
  4 28  1  0  0  0  0
  6 29  1  0  0  0  0
  6 30  1  0  0  0  0
  7 31  1  0  0  0  0
  7 32  1  0  0  0  0
  8 33  1  0  0  0  0
  8 34  1  0  0  0  0
 10 35  1  0  0  0  0
 11 36  1  0  0  0  0
 12 37  1  0  0  0  0
 14 38  1  0  0  0  0
 14 39  1  0  0  0  0
 20 40  1  0  0  0  0
 21 41  1  0  0  0  0
 22 42  1  0  0  0  0
 23 43  1  0  0  0  0
M  END
> <OPENEYE_ISO_SMILES>
c1ccc2c(c1)cncc2N3C(=O)C4(CC(C4)C5CCC5)NC3=O

> <OPENEYE_INCHI>
InChI=1S/C19H19N3O2/c23-17-19(8-14(9-19)12-5-3-6-12)21-18(24)22(17)16-11-20-10-13-4-1-2-7-15(13)16/h1-2,4,7,10-12,14H,3,5-6,8-9H2,(H,21,24)/t14-,19-

> <OPENEYE_INCHIKEY>
YKGOQXICHYEMJW-QUWSVYMGSA-N

> <FORMULA>
C19H19N3O2

$$$$
