K0G
  -OEChem-02242320033D

 27 28  0     0  0  0  0  0  0999 V2000
   -1.1530    1.1760   -0.0640 N   0  0  0  0  0  0  0  0  0  0  0  0
    4.7980   -0.8750   -0.1130 C   0  0  0  0  0  0  0  0  0  0  0  0
    3.7000   -1.3600   -0.8000 C   0  0  0  0  0  0  0  0  0  0  0  0
    2.5000   -0.6790   -0.7550 C   0  0  0  0  0  0  0  0  0  0  0  0
   -2.3630    0.4770    0.0100 C   0  0  0  0  0  0  0  0  0  0  0  0
   -2.4600   -0.6910    0.7620 C   0  0  0  0  0  0  0  0  0  0  0  0
   -4.7520   -0.8250    0.1060 C   0  0  0  0  0  0  0  0  0  0  0  0
    1.1800    1.1860    0.0280 N   0  0  0  0  0  0  0  0  0  0  0  0
    0.0160    0.5070   -0.0050 C   0  0  0  0  0  0  0  0  0  0  0  0
    0.0210   -0.7090    0.0180 O   0  0  0  0  0  0  0  0  0  0  0  0
    2.3950    0.4940   -0.0190 C   0  0  0  0  0  0  0  0  0  0  0  0
   -3.4870    0.9410   -0.6610 C   0  0  0  0  0  0  0  0  0  0  0  0
    3.5000    0.9790    0.6690 C   0  0  0  0  0  0  0  0  0  0  0  0
    4.6980    0.2930    0.6200 C   0  0  0  0  0  0  0  0  0  0  0  0
   -3.6790   -1.3470    0.8050 C   0  0  0  0  0  0  0  0  0  0  0  0
   -4.6290    0.2870   -0.5920 N   0  0  0  0  0  0  0  0  0  0  0  0
   -1.1550    2.1410   -0.1630 H   0  0  0  0  0  0  0  0  0  0  0  0
    5.7350   -1.4120   -0.1460 H   0  0  0  0  0  0  0  0  0  0  0  0
    3.7820   -2.2730   -1.3720 H   0  0  0  0  0  0  0  0  0  0  0  0
    1.6430   -1.0590   -1.2920 H   0  0  0  0  0  0  0  0  0  0  0  0
   -1.6050   -1.0760    1.2980 H   0  0  0  0  0  0  0  0  0  0  0  0
   -5.7040   -1.3320    0.1370 H   0  0  0  0  0  0  0  0  0  0  0  0
    1.1750    2.1540    0.0860 H   0  0  0  0  0  0  0  0  0  0  0  0
   -3.4250    1.8480   -1.2440 H   0  0  0  0  0  0  0  0  0  0  0  0
    3.4220    1.8910    1.2420 H   0  0  0  0  0  0  0  0  0  0  0  0
    5.5570    0.6700    1.1560 H   0  0  0  0  0  0  0  0  0  0  0  0
   -3.7910   -2.2550    1.3780 H   0  0  0  0  0  0  0  0  0  0  0  0
  2 14  2  0  0  0  0
  2  3  1  0  0  0  0
 13 14  1  0  0  0  0
  3  4  2  0  0  0  0
 11 13  2  0  0  0  0
  4 11  1  0  0  0  0
  8 11  1  0  0  0  0
  8  9  1  0  0  0  0
  9 10  2  0  0  0  0
  1  9  1  0  0  0  0
  1  5  1  0  0  0  0
  5  6  2  0  0  0  0
  5 12  1  0  0  0  0
  6 15  1  0  0  0  0
 12 16  2  0  0  0  0
  7 15  2  0  0  0  0
  7 16  1  0  0  0  0
  1 17  1  0  0  0  0
  2 18  1  0  0  0  0
  3 19  1  0  0  0  0
  4 20  1  0  0  0  0
  6 21  1  0  0  0  0
  7 22  1  0  0  0  0
  8 23  1  0  0  0  0
 12 24  1  0  0  0  0
 13 25  1  0  0  0  0
 14 26  1  0  0  0  0
 15 27  1  0  0  0  0
M  END
> <OPENEYE_ISO_SMILES>
c1ccc(cc1)NC(=O)Nc2cccnc2

> <OPENEYE_INCHI>
InChI=1S/C12H11N3O/c16-12(14-10-5-2-1-3-6-10)15-11-7-4-8-13-9-11/h1-9H,(H2,14,15,16)

> <OPENEYE_INCHIKEY>
WBKYYDBHEGTTON-UHFFFAOYSA-N

> <FORMULA>
C12H11N3O

$$$$
