WXO
  -OEChem-02242320043D

 38 40  0     0  0  0  0  0  0999 V2000
    2.2770    1.6710   -1.7110 C   0  0  0  0  0  0  0  0  0  0  0  0
    3.0260    0.4170   -1.6400 C   0  0  0  0  0  0  0  0  0  0  0  0
   -2.1900   -0.0800    1.0100 C   0  0  0  0  0  0  0  0  0  0  0  0
    1.9340    2.4990    0.5240 C   0  0  0  0  0  0  0  0  0  0  0  0
    2.7400    2.7340   -0.7200 C   0  0  0  0  0  0  0  0  0  0  0  0
   -4.3890    0.4840    0.3260 C   0  0  0  0  0  0  0  0  0  0  0  0
   -2.9040   -0.1980   -1.3570 C   0  0  0  0  0  0  0  0  0  0  0  0
   -1.8640   -0.3660   -0.3280 C   0  0  0  0  0  0  0  0  0  0  0  0
   -0.5760   -0.7960   -0.6450 C   0  0  0  0  0  0  0  0  0  0  0  0
    0.3370   -0.9240    0.3890 C   0  0  0  0  0  0  0  0  0  0  0  0
   -0.0540   -0.6250    1.6830 C   0  0  0  0  0  0  0  0  0  0  0  0
    2.7390    1.6670    1.5530 C   0  0  0  0  0  0  0  0  0  0  0  0
    3.5580    0.5710    0.8270 C   0  0  0  0  0  0  0  0  0  0  0  0
   -4.1270    0.2240   -0.9650 N   0  0  0  0  0  0  0  0  0  0  0  0
   -1.2780   -0.2140    1.9570 N   0  0  0  0  0  0  0  0  0  0  0  0
   -3.4740    0.3470    1.3000 N   0  0  0  0  0  0  0  0  0  0  0  0
    2.8890   -0.1130   -0.2420 N   0  0  0  0  0  0  0  0  0  0  0  0
   -5.5050    0.8620    0.6260 O   0  0  0  0  0  0  0  0  0  0  0  0
   -2.6700   -0.4330   -2.5270 O   0  0  0  0  0  0  0  0  0  0  0  0
    2.4730   -2.0140    1.2760 O   0  0  0  0  0  0  0  0  0  0  0  0
    1.9290   -2.1940   -1.1570 O   0  0  0  0  0  0  0  0  0  0  0  0
    1.9810   -1.4640    0.0610 S   0  0  0  0  0  0  0  0  0  0  0  0
    2.3700    2.0740   -2.7200 H   0  0  0  0  0  0  0  0  0  0  0  0
    1.2250    1.4580   -1.5200 H   0  0  0  0  0  0  0  0  0  0  0  0
    2.6130   -0.3000   -2.3500 H   0  0  0  0  0  0  0  0  0  0  0  0
    4.0760    0.6000   -1.8670 H   0  0  0  0  0  0  0  0  0  0  0  0
    1.6690    3.4590    0.9680 H   0  0  0  0  0  0  0  0  0  0  0  0
    1.0210    1.9610    0.2640 H   0  0  0  0  0  0  0  0  0  0  0  0
    3.8030    2.6160   -0.5090 H   0  0  0  0  0  0  0  0  0  0  0  0
    2.5410    3.7310   -1.1150 H   0  0  0  0  0  0  0  0  0  0  0  0
   -0.2990   -1.0230   -1.6640 H   0  0  0  0  0  0  0  0  0  0  0  0
    0.6600   -0.7260    2.4870 H   0  0  0  0  0  0  0  0  0  0  0  0
    3.4170    2.3240    2.0970 H   0  0  0  0  0  0  0  0  0  0  0  0
    2.0510    1.1980    2.2560 H   0  0  0  0  0  0  0  0  0  0  0  0
    4.4600    1.0310    0.4240 H   0  0  0  0  0  0  0  0  0  0  0  0
    3.8630   -0.1710    1.5660 H   0  0  0  0  0  0  0  0  0  0  0  0
   -4.8260    0.3400   -1.6270 H   0  0  0  0  0  0  0  0  0  0  0  0
   -3.7170    0.5480    2.2170 H   0  0  0  0  0  0  0  0  0  0  0  0
  4 12  1  0  0  0  0
  4  5  1  0  0  0  0
 12 13  1  0  0  0  0
 21 22  2  0  0  0  0
  1  5  1  0  0  0  0
  1  2  1  0  0  0  0
 13 17  1  0  0  0  0
 17 22  1  0  0  0  0
  2 17  1  0  0  0  0
 20 22  2  0  0  0  0
 10 22  1  0  0  0  0
 10 11  2  0  0  0  0
 11 15  1  0  0  0  0
  9 10  1  0  0  0  0
  3 15  2  0  0  0  0
  8  9  2  0  0  0  0
  3  8  1  0  0  0  0
  3 16  1  0  0  0  0
  7  8  1  0  0  0  0
  6 16  1  0  0  0  0
  7 19  2  0  0  0  0
  7 14  1  0  0  0  0
  6 14  1  0  0  0  0
  6 18  2  0  0  0  0
  1 23  1  0  0  0  0
  1 24  1  0  0  0  0
  2 25  1  0  0  0  0
  2 26  1  0  0  0  0
  4 27  1  0  0  0  0
  4 28  1  0  0  0  0
  5 29  1  0  0  0  0
  5 30  1  0  0  0  0
  9 31  1  0  0  0  0
 11 32  1  0  0  0  0
 12 33  1  0  0  0  0
 12 34  1  0  0  0  0
 13 35  1  0  0  0  0
 13 36  1  0  0  0  0
 14 37  1  0  0  0  0
 16 38  1  0  0  0  0
M  END
> <OPENEYE_ISO_SMILES>
c1c(cnc2c1c(=O)[nH]c(=O)[nH]2)S(=O)(=O)N3CCCCCC3

> <OPENEYE_INCHI>
InChI=1S/C13H16N4O4S/c18-12-10-7-9(8-14-11(10)15-13(19)16-12)22(20,21)17-5-3-1-2-4-6-17/h7-8H,1-6H2,(H2,14,15,16,18,19)

> <OPENEYE_INCHIKEY>
LLNQFWFHQRNMTN-UHFFFAOYSA-N

> <FORMULA>
C13H16N4O4S

$$$$
