T7A
  -OEChem-02242320043D

 25 26  0     0  0  0  0  0  0999 V2000
    0.0580   -0.9680   -0.0000 N   0  0  0  0  0  0  0  0  0  0  0  0
   -1.6560    2.1840    0.0000 C   0  0  0  0  0  0  0  0  0  0  0  0
   -0.6670    1.2020   -0.0000 C   0  0  0  0  0  0  0  0  0  0  0  0
    1.2270   -0.4280   -0.0000 C   0  0  0  0  0  0  0  0  0  0  0  0
    3.5940   -0.4630    0.0000 C   0  0  0  0  0  0  0  0  0  0  0  0
    4.8940   -1.2250    0.0000 C   0  0  0  0  0  0  0  0  0  0  0  0
    2.4230   -1.1290   -0.0000 N   0  0  0  0  0  0  0  0  0  0  0  0
   -4.1610   -2.0760    0.0010 C   0  0  0  0  0  0  0  0  0  0  0  0
   -2.7590   -1.8000    0.0000 O   0  0  0  0  0  0  0  0  0  0  0  0
   -2.3880   -0.4930   -0.0000 C   0  0  0  0  0  0  0  0  0  0  0  0
   -3.3490    0.4920   -0.0000 C   0  0  0  0  0  0  0  0  0  0  0  0
   -2.9870    1.8310   -0.0000 C   0  0  0  0  0  0  0  0  0  0  0  0
   -1.0140   -0.1510   -0.0000 C   0  0  0  0  0  0  0  0  0  0  0  0
    3.6020    0.7500    0.0010 O   0  0  0  0  0  0  0  0  0  0  0  0
    1.0910    1.3250   -0.0000 S   0  0  0  0  0  0  0  0  0  0  0  0
   -1.3770    3.2280    0.0000 H   0  0  0  0  0  0  0  0  0  0  0  0
    5.2080   -1.4080   -1.0280 H   0  0  0  0  0  0  0  0  0  0  0  0
    5.6580   -0.6410    0.5140 H   0  0  0  0  0  0  0  0  0  0  0  0
    4.7580   -2.1770    0.5130 H   0  0  0  0  0  0  0  0  0  0  0  0
    2.4160   -2.0990   -0.0010 H   0  0  0  0  0  0  0  0  0  0  0  0
   -4.3190   -3.1550    0.0010 H   0  0  0  0  0  0  0  0  0  0  0  0
   -4.6170   -1.6420    0.8910 H   0  0  0  0  0  0  0  0  0  0  0  0
   -4.6170   -1.6430   -0.8890 H   0  0  0  0  0  0  0  0  0  0  0  0
   -4.3940    0.2210   -0.0010 H   0  0  0  0  0  0  0  0  0  0  0  0
   -3.7480    2.5960    0.0010 H   0  0  0  0  0  0  0  0  0  0  0  0
  8  9  1  0  0  0  0
  9 10  1  0  0  0  0
 10 11  1  0  0  0  0
 11 12  2  0  0  0  0
  2 12  1  0  0  0  0
  2  3  2  0  0  0  0
  3 15  1  0  0  0  0
  4 15  1  0  0  0  0
  4  7  1  0  0  0  0
  5  7  1  0  0  0  0
  5 14  2  0  0  0  0
  5  6  1  0  0  0  0
  1  4  2  0  0  0  0
  1 13  1  0  0  0  0
 10 13  2  0  0  0  0
  3 13  1  0  0  0  0
  2 16  1  0  0  0  0
  6 17  1  0  0  0  0
  6 18  1  0  0  0  0
  6 19  1  0  0  0  0
  7 20  1  0  0  0  0
  8 21  1  0  0  0  0
  8 22  1  0  0  0  0
  8 23  1  0  0  0  0
 11 24  1  0  0  0  0
 12 25  1  0  0  0  0
M  END
> <OPENEYE_ISO_SMILES>
CC(=O)Nc1nc2c(cccc2s1)OC

> <OPENEYE_INCHI>
InChI=1S/C10H10N2O2S/c1-6(13)11-10-12-9-7(14-2)4-3-5-8(9)15-10/h3-5H,1-2H3,(H,11,12,13)

> <OPENEYE_INCHIKEY>
AQDZPXNDPBKKSZ-UHFFFAOYSA-N

> <FORMULA>
C10H10N2O2S

$$$$
