AVY
  -OEChem-02242320013D

 94 96  0     1  0  0  0  0  0999 V2000
   -3.7110    1.7890    0.3950 C   0  0  1  0  0  0  0  0  0  0  0  0
   -4.7010    1.9570   -0.7590 C   0  0  0  0  0  0  0  0  0  0  0  0
   -3.9570    1.8480   -2.0910 C   0  0  1  0  0  0  0  0  0  0  0  0
   -4.9210    1.9770   -3.2490 C   0  0  0  0  0  0  0  0  0  0  0  0
    3.3000   -3.2360   -0.2790 C   0  0  0  0  0  0  0  0  0  0  0  0
    2.3440   -3.2380   -1.4440 C   0  0  0  0  0  0  0  0  0  0  0  0
   -3.0970    3.3100   -3.7860 C   0  0  0  0  0  0  0  0  0  0  0  0
    1.1200   -1.4010    0.5900 C   0  0  0  0  0  0  0  0  0  0  0  0
   -1.2960   -1.1560    0.7830 C   0  0  1  0  0  0  0  0  0  0  0  0
   -2.1760   -2.1180    1.5850 C   0  0  0  0  0  0  0  0  0  0  0  0
   -1.6720   -3.5490    1.3940 C   0  0  0  0  0  0  0  0  0  0  0  0
   -2.4870   -4.4980    2.2750 C   0  0  0  0  0  0  0  0  0  0  0  0
   -1.8290   -3.9550   -0.0730 C   0  0  0  0  0  0  0  0  0  0  0  0
   -1.8910    0.2270    0.8300 C   0  0  0  0  0  0  0  0  0  0  0  0
   -2.9890    3.0400   -2.2690 C   0  0  0  0  0  0  0  0  0  0  0  0
   -4.4390    1.9860    1.7260 C   0  0  2  0  0  0  0  0  0  0  0  0
    3.4480   -1.8100    0.2570 C   0  0  0  0  0  0  0  0  0  0  0  0
    1.0550   -3.7100   -1.2790 C   0  0  0  0  0  0  0  0  0  0  0  0
    0.1780   -3.7120   -2.3470 C   0  0  0  0  0  0  0  0  0  0  0  0
    0.5890   -3.2410   -3.5800 C   0  0  0  0  0  0  0  0  0  0  0  0
    1.8770   -2.7680   -3.7440 C   0  0  0  0  0  0  0  0  0  0  0  0
    2.7530   -2.7620   -2.6750 C   0  0  0  0  0  0  0  0  0  0  0  0
    0.0490   -1.1290    1.3620 N   0  0  0  0  0  0  0  0  0  0  0  0
   -3.1320    0.4440    0.3490 N   0  0  0  0  0  0  0  0  0  0  0  0
   -4.4170    2.8050   -4.1800 N   0  0  0  0  0  0  0  0  0  0  0  0
    0.9840   -1.5490   -0.6080 O   0  0  0  0  0  0  0  0  0  0  0  0
   -5.9930    1.4140   -3.3260 O   0  0  0  0  0  0  0  0  0  0  0  0
   -3.4940    1.9440    2.7970 O   0  0  0  0  0  0  0  0  0  0  0  0
   -1.2550    1.1460    1.3010 O   0  0  0  0  0  0  0  0  0  0  0  0
    2.3410   -1.5110    1.1480 O   0  0  0  0  0  0  0  0  0  0  0  0
   -2.9160    2.5300    0.3030 H   0  0  0  0  0  0  0  0  0  0  0  0
   -5.4610    1.1770   -0.7020 H   0  0  0  0  0  0  0  0  0  0  0  0
   -5.1780    2.9350   -0.6880 H   0  0  0  0  0  0  0  0  0  0  0  0
   -3.4140    0.9040   -2.1470 H   0  0  0  0  0  0  0  0  0  0  0  0
    2.9140   -3.8820    0.5100 H   0  0  0  0  0  0  0  0  0  0  0  0
    4.2720   -3.6030   -0.6070 H   0  0  0  0  0  0  0  0  0  0  0  0
   -3.0280    4.3800   -3.9850 H   0  0  0  0  0  0  0  0  0  0  0  0
   -2.3130    2.7760   -4.3230 H   0  0  0  0  0  0  0  0  0  0  0  0
   -1.2400   -1.4930   -0.2520 H   0  0  0  0  0  0  0  0  0  0  0  0
   -2.1330   -1.8550    2.6420 H   0  0  0  0  0  0  0  0  0  0  0  0
   -3.2060   -2.0450    1.2340 H   0  0  0  0  0  0  0  0  0  0  0  0
   -0.6210   -3.6050    1.6760 H   0  0  0  0  0  0  0  0  0  0  0  0
   -2.1280   -5.5190    2.1400 H   0  0  0  0  0  0  0  0  0  0  0  0
   -2.3750   -4.2100    3.3200 H   0  0  0  0  0  0  0  0  0  0  0  0
   -3.5380   -4.4430    1.9930 H   0  0  0  0  0  0  0  0  0  0  0  0
   -1.5770   -5.0090   -0.1870 H   0  0  0  0  0  0  0  0  0  0  0  0
   -2.8590   -3.7910   -0.3870 H   0  0  0  0  0  0  0  0  0  0  0  0
   -1.1610   -3.3520   -0.6890 H   0  0  0  0  0  0  0  0  0  0  0  0
   -3.3230    3.9040   -1.6940 H   0  0  0  0  0  0  0  0  0  0  0  0
   -1.9710    2.7610   -1.9940 H   0  0  0  0  0  0  0  0  0  0  0  0
   -4.9440    2.9520    1.7240 H   0  0  0  0  0  0  0  0  0  0  0  0
    0.7340   -4.0780   -0.3150 H   0  0  0  0  0  0  0  0  0  0  0  0
   -0.8290   -4.0820   -2.2180 H   0  0  0  0  0  0  0  0  0  0  0  0
   -0.0960   -3.2430   -4.4150 H   0  0  0  0  0  0  0  0  0  0  0  0
    2.1990   -2.4010   -4.7080 H   0  0  0  0  0  0  0  0  0  0  0  0
    3.7590   -2.3890   -2.8030 H   0  0  0  0  0  0  0  0  0  0  0  0
    0.1700   -0.9140    2.3000 H   0  0  0  0  0  0  0  0  0  0  0  0
   -3.6410   -0.2910   -0.0270 H   0  0  0  0  0  0  0  0  0  0  0  0
   -4.8690    3.0390   -5.0060 H   0  0  0  0  0  0  0  0  0  0  0  0
   -3.0070    1.1120    2.8590 H   0  0  0  0  0  0  0  0  0  0  0  0
   -5.6620    0.6640    1.9470 S   0  0  0  0  0  0  0  0  0  0  0  0
   -6.3110    0.9680    3.2890 O   0  0  0  0  0  0  0  0  0  0  0  0
   -6.7190    0.8010    1.0070 O   0  0  0  0  0  0  0  0  0  0  0  0
   -5.0160   -0.5850    2.1450 O   0  0  0  0  0  0  0  0  0  0  0  0
    4.7670   -1.6880    1.0230 C   0  0  0  0  0  0  0  0  0  0  0  0
    3.4430   -0.8230   -0.9130 C   0  0  0  0  0  0  0  0  0  0  0  0
    3.5560    0.6050   -0.3700 C   0  0  0  0  0  0  0  0  0  0  0  0
    4.7460    0.6920    0.4870 N   0  0  0  0  0  0  0  0  0  0  0  0
    4.8960   -0.2690    1.5880 C   0  0  0  0  0  0  0  0  0  0  0  0
   -6.9970    0.3370    3.5470 H   0  0  0  0  0  0  0  0  0  0  0  0
    4.7800   -2.4080    1.8420 H   0  0  0  0  0  0  0  0  0  0  0  0
    5.6000   -1.8890    0.3490 H   0  0  0  0  0  0  0  0  0  0  0  0
    4.2880   -1.0310   -1.5690 H   0  0  0  0  0  0  0  0  0  0  0  0
    2.5130   -0.9270   -1.4720 H   0  0  0  0  0  0  0  0  0  0  0  0
    3.6520    1.3050   -1.2010 H   0  0  0  0  0  0  0  0  0  0  0  0
    2.6670    0.8470    0.2130 H   0  0  0  0  0  0  0  0  0  0  0  0
    5.6830    1.6370    0.2680 C   0  0  0  0  0  0  0  0  0  0  0  0
    4.1160   -0.1000    2.3300 H   0  0  0  0  0  0  0  0  0  0  0  0
    5.8760   -0.1470    2.0490 H   0  0  0  0  0  0  0  0  0  0  0  0
    5.5480    2.4260   -0.6460 O   0  0  0  0  0  0  0  0  0  0  0  0
    6.7680    1.7050    1.0620 O   0  0  0  0  0  0  0  0  0  0  0  0
    7.7350    2.7470    0.7670 C   0  0  0  0  0  0  0  0  0  0  0  0
    7.0600    4.1150    0.8760 C   0  0  0  0  0  0  0  0  0  0  0  0
    8.8910    2.6670    1.7670 C   0  0  0  0  0  0  0  0  0  0  0  0
    8.2750    2.5550   -0.6510 C   0  0  0  0  0  0  0  0  0  0  0  0
    6.6760    4.2510    1.8870 H   0  0  0  0  0  0  0  0  0  0  0  0
    7.7860    4.8970    0.6550 H   0  0  0  0  0  0  0  0  0  0  0  0
    6.2370    4.1720    0.1640 H   0  0  0  0  0  0  0  0  0  0  0  0
    9.3720    1.6920    1.6900 H   0  0  0  0  0  0  0  0  0  0  0  0
    9.6170    3.4490    1.5460 H   0  0  0  0  0  0  0  0  0  0  0  0
    8.5060    2.8030    2.7780 H   0  0  0  0  0  0  0  0  0  0  0  0
    7.4520    2.6120   -1.3640 H   0  0  0  0  0  0  0  0  0  0  0  0
    9.0010    3.3380   -0.8730 H   0  0  0  0  0  0  0  0  0  0  0  0
    8.7560    1.5810   -0.7290 H   0  0  0  0  0  0  0  0  0  0  0  0
 11 12  1  0  0  0  0
 11 13  1  0  0  0  0
 10 11  1  0  0  0  0
  9 10  1  0  0  0  0
  9 23  1  0  0  0  0
  8 23  1  0  0  0  0
  9 14  1  0  0  0  0
 17 30  1  0  0  0  0
  8 30  1  0  0  0  0
  5 17  1  0  0  0  0
  8 26  2  0  0  0  0
 14 29  2  0  0  0  0
 14 24  1  0  0  0  0
  5  6  1  0  0  0  0
  1 24  1  0  0  0  0
 16 28  1  0  0  0  0
  6 18  2  0  0  0  0
 18 19  1  0  0  0  0
  6 22  1  0  0  0  0
  1 16  1  0  0  0  0
 19 20  2  0  0  0  0
  1  2  1  0  0  0  0
 21 22  2  0  0  0  0
 20 21  1  0  0  0  0
  2  3  1  0  0  0  0
  3 15  1  0  0  0  0
  3  4  1  0  0  0  0
  7 15  1  0  0  0  0
  4 27  2  0  0  0  0
  4 25  1  0  0  0  0
  7 25  1  0  0  0  0
  1 31  1  0  0  0  0
  2 32  1  0  0  0  0
  2 33  1  0  0  0  0
  3 34  1  0  0  0  0
  5 35  1  0  0  0  0
  5 36  1  0  0  0  0
  7 37  1  0  0  0  0
  7 38  1  0  0  0  0
  9 39  1  0  0  0  0
 10 40  1  0  0  0  0
 10 41  1  0  0  0  0
 11 42  1  0  0  0  0
 12 43  1  0  0  0  0
 12 44  1  0  0  0  0
 12 45  1  0  0  0  0
 13 46  1  0  0  0  0
 13 47  1  0  0  0  0
 13 48  1  0  0  0  0
 15 49  1  0  0  0  0
 15 50  1  0  0  0  0
 16 51  1  0  0  0  0
 18 52  1  0  0  0  0
 19 53  1  0  0  0  0
 20 54  1  0  0  0  0
 21 55  1  0  0  0  0
 22 56  1  0  0  0  0
 23 57  1  0  0  0  0
 24 58  1  0  0  0  0
 25 59  1  0  0  0  0
 28 60  1  0  0  0  0
 16 61  1  0  0  0  0
 61 62  1  0  0  0  0
 61 63  2  0  0  0  0
 61 64  2  0  0  0  0
 17 65  1  0  0  0  0
 17 66  1  0  0  0  0
 66 67  1  0  0  0  0
 67 68  1  0  0  0  0
 68 69  1  0  0  0  0
 65 69  1  0  0  0  0
 62 70  1  0  0  0  0
 65 71  1  0  0  0  0
 65 72  1  0  0  0  0
 66 73  1  0  0  0  0
 66 74  1  0  0  0  0
 67 75  1  0  0  0  0
 67 76  1  0  0  0  0
 68 77  1  0  0  0  0
 69 78  1  0  0  0  0
 69 79  1  0  0  0  0
 77 80  2  0  0  0  0
 77 81  1  0  0  0  0
 81 82  1  0  0  0  0
 82 83  1  0  0  0  0
 82 84  1  0  0  0  0
 82 85  1  0  0  0  0
 83 86  1  0  0  0  0
 83 87  1  0  0  0  0
 83 88  1  0  0  0  0
 84 89  1  0  0  0  0
 84 90  1  0  0  0  0
 84 91  1  0  0  0  0
 85 92  1  0  0  0  0
 85 93  1  0  0  0  0
 85 94  1  0  0  0  0
M  END
> <OPENEYE_ISO_SMILES>
CC(C)C[C@@H](C(=O)N[C@@H](C[C@@H]1CCNC1=O)[C@H](O)S(=O)(=O)O)NC(=O)OC2(CCN(CC2)C(=O)OC(C)(C)C)Cc3ccccc3

> <OPENEYE_INCHI>
InChI=1S/C31H48N4O10S/c1-20(2)17-23(26(37)33-24(27(38)46(41,42)43)18-22-11-14-32-25(22)36)34-28(39)44-31(19-21-9-7-6-8-10-21)12-15-35(16-13-31)29(40)45-30(3,4)5/h6-10,20,22-24,27,38H,11-19H2,1-5H3,(H,32,36)(H,33,37)(H,34,39)(H,41,42,43)/t22-,23-,24-,27+/m0/s1

> <OPENEYE_INCHIKEY>
PJEUBFINPIVQHS-IPVQETTRSA-N

> <FORMULA>
C31H48N4O10S

$$$$
