B3J
  -OEChem-02242320013D

 94 96  0     1  0  0  0  0  0999 V2000
   -4.4320   -0.0820   -0.3320 C   0  0  1  0  0  0  0  0  0  0  0  0
   -5.4310   -0.5990    0.7050 C   0  0  0  0  0  0  0  0  0  0  0  0
   -4.7210   -1.5550    1.6660 C   0  0  1  0  0  0  0  0  0  0  0  0
   -5.6880   -2.0760    2.7060 C   0  0  0  0  0  0  0  0  0  0  0  0
    4.0210    2.1050    1.3830 C   0  0  0  0  0  0  0  0  0  0  0  0
    4.3000    3.3210    0.5390 C   0  0  0  0  0  0  0  0  0  0  0  0
   -4.4750   -3.9190    1.9820 C   0  0  0  0  0  0  0  0  0  0  0  0
    1.4080    1.1560    0.4120 C   0  0  0  0  0  0  0  0  0  0  0  0
   -1.0130    1.4130    0.5220 C   0  0  1  0  0  0  0  0  0  0  0  0
   -1.3860    2.8940    0.6130 C   0  0  0  0  0  0  0  0  0  0  0  0
   -0.3390    3.6320    1.4500 C   0  0  0  0  0  0  0  0  0  0  0  0
   -0.6270    5.1350    1.4160 C   0  0  0  0  0  0  0  0  0  0  0  0
   -0.3990    3.1350    2.8960 C   0  0  0  0  0  0  0  0  0  0  0  0
   -2.1160    0.6590   -0.1750 C   0  0  0  0  0  0  0  0  0  0  0  0
   -4.2490   -2.8230    0.9170 C   0  0  0  0  0  0  0  0  0  0  0  0
   -5.1490    0.8510   -1.3100 C   0  0  1  0  0  0  0  0  0  0  0  0
    5.6000    3.6430    0.1970 C   0  0  0  0  0  0  0  0  0  0  0  0
    5.8560    4.7590   -0.5770 C   0  0  0  0  0  0  0  0  0  0  0  0
    4.8110    5.5530   -1.0110 C   0  0  0  0  0  0  0  0  0  0  0  0
    3.5100    5.2310   -0.6710 C   0  0  0  0  0  0  0  0  0  0  0  0
    3.2540    4.1130    0.1000 C   0  0  0  0  0  0  0  0  0  0  0  0
    0.2320    1.2690   -0.2370 N   0  0  0  0  0  0  0  0  0  0  0  0
   -3.3590    0.6500    0.3450 N   0  0  0  0  0  0  0  0  0  0  0  0
   -5.5320   -3.4020    2.8580 N   0  0  0  0  0  0  0  0  0  0  0  0
    1.4290    1.1060    1.6260 O   0  0  0  0  0  0  0  0  0  0  0  0
   -6.4870   -1.3960    3.3140 O   0  0  0  0  0  0  0  0  0  0  0  0
   -4.1920    1.4420   -2.1920 O   0  0  0  0  0  0  0  0  0  0  0  0
   -1.8850    0.0600   -1.2040 O   0  0  0  0  0  0  0  0  0  0  0  0
    2.5590    1.1000   -0.2850 O   0  0  0  0  0  0  0  0  0  0  0  0
   -6.3570   -0.0970   -2.2760 S   0  0  0  0  0  0  0  0  0  0  0  0
   -4.0080   -0.9250   -0.8790 H   0  0  0  0  0  0  0  0  0  0  0  0
   -5.8400    0.2420    1.2660 H   0  0  0  0  0  0  0  0  0  0  0  0
   -6.2400   -1.1260    0.1990 H   0  0  0  0  0  0  0  0  0  0  0  0
   -3.8760   -1.0570    2.1420 H   0  0  0  0  0  0  0  0  0  0  0  0
    4.8760    1.9080    2.0290 H   0  0  0  0  0  0  0  0  0  0  0  0
    3.1360    2.2820    1.9950 H   0  0  0  0  0  0  0  0  0  0  0  0
   -4.7980   -4.8460    1.5070 H   0  0  0  0  0  0  0  0  0  0  0  0
   -3.5610   -4.0870    2.5520 H   0  0  0  0  0  0  0  0  0  0  0  0
   -0.8750    1.0100    1.5250 H   0  0  0  0  0  0  0  0  0  0  0  0
   -1.4190    3.3230   -0.3880 H   0  0  0  0  0  0  0  0  0  0  0  0
   -2.3640    2.9940    1.0840 H   0  0  0  0  0  0  0  0  0  0  0  0
    0.6530    3.4430    1.0410 H   0  0  0  0  0  0  0  0  0  0  0  0
    0.1190    5.6610    2.0120 H   0  0  0  0  0  0  0  0  0  0  0  0
   -0.5840    5.4890    0.3860 H   0  0  0  0  0  0  0  0  0  0  0  0
   -1.6190    5.3240    1.8250 H   0  0  0  0  0  0  0  0  0  0  0  0
   -1.3600    3.4050    3.3340 H   0  0  0  0  0  0  0  0  0  0  0  0
   -0.2840    2.0510    2.9120 H   0  0  0  0  0  0  0  0  0  0  0  0
    0.4050    3.5940    3.4710 H   0  0  0  0  0  0  0  0  0  0  0  0
   -4.8620   -3.0050    0.0340 H   0  0  0  0  0  0  0  0  0  0  0  0
   -3.1950   -2.7490    0.6500 H   0  0  0  0  0  0  0  0  0  0  0  0
   -5.6630    1.6350   -0.7530 H   0  0  0  0  0  0  0  0  0  0  0  0
    6.4160    3.0230    0.5360 H   0  0  0  0  0  0  0  0  0  0  0  0
    6.8720    5.0110   -0.8430 H   0  0  0  0  0  0  0  0  0  0  0  0
    5.0100    6.4250   -1.6160 H   0  0  0  0  0  0  0  0  0  0  0  0
    2.6940    5.8520   -1.0100 H   0  0  0  0  0  0  0  0  0  0  0  0
    2.2380    3.8590    0.3630 H   0  0  0  0  0  0  0  0  0  0  0  0
    0.2100    1.2540   -1.2070 H   0  0  0  0  0  0  0  0  0  0  0  0
   -3.5440    1.1290    1.1680 H   0  0  0  0  0  0  0  0  0  0  0  0
   -6.0520   -3.9480    3.4690 H   0  0  0  0  0  0  0  0  0  0  0  0
   -3.5140    1.9650   -1.7430 H   0  0  0  0  0  0  0  0  0  0  0  0
   -5.7860   -1.3170   -2.7280 O   0  0  0  0  0  0  0  0  0  0  0  0
   -7.4030   -0.5270   -1.2580 O   0  0  0  0  0  0  0  0  0  0  0  0
   -7.0630    0.7560   -3.1660 O   0  0  0  0  0  0  0  0  0  0  0  0
    4.9590    0.7410   -0.4880 C   0  0  0  0  0  0  0  0  0  0  0  0
    4.6980   -0.4480   -1.4190 C   0  0  0  0  0  0  0  0  0  0  0  0
    4.4240   -1.6370   -0.6020 N   0  0  0  0  0  0  0  0  0  0  0  0
    3.3690   -1.5660    0.4190 C   0  0  0  0  0  0  0  0  0  0  0  0
    3.6450   -0.3650    1.3290 C   0  0  0  0  0  0  0  0  0  0  0  0
    3.7800    0.8980    0.4740 C   0  0  0  0  0  0  0  0  0  0  0  0
   -8.1250   -1.0500   -1.6330 H   0  0  0  0  0  0  0  0  0  0  0  0
    5.8720    0.5640    0.0800 H   0  0  0  0  0  0  0  0  0  0  0  0
    5.0690    1.6490   -1.0810 H   0  0  0  0  0  0  0  0  0  0  0  0
    3.8370   -0.2330   -2.0530 H   0  0  0  0  0  0  0  0  0  0  0  0
    5.5760   -0.6250   -2.0400 H   0  0  0  0  0  0  0  0  0  0  0  0
    2.4000   -1.4430   -0.0650 H   0  0  0  0  0  0  0  0  0  0  0  0
    3.3710   -2.4810    1.0110 H   0  0  0  0  0  0  0  0  0  0  0  0
    2.8200   -0.2430    2.0300 H   0  0  0  0  0  0  0  0  0  0  0  0
    4.5700   -0.5310    1.8800 H   0  0  0  0  0  0  0  0  0  0  0  0
    5.1260   -2.7730   -0.7850 C   0  0  0  0  0  0  0  0  0  0  0  0
    4.8640   -3.8560   -0.0290 O   0  0  0  0  0  0  0  0  0  0  0  0
    5.6590   -5.0440   -0.2820 C   0  0  0  0  0  0  0  0  0  0  0  0
    7.1380   -4.7270   -0.0480 C   0  0  0  0  0  0  0  0  0  0  0  0
    5.2210   -6.1620    0.6670 C   0  0  0  0  0  0  0  0  0  0  0  0
    5.4570   -5.4950   -1.7290 C   0  0  0  0  0  0  0  0  0  0  0  0
    5.9950   -2.8200   -1.6330 O   0  0  0  0  0  0  0  0  0  0  0  0
    7.2820   -4.4060    0.9840 H   0  0  0  0  0  0  0  0  0  0  0  0
    7.7350   -5.6190   -0.2370 H   0  0  0  0  0  0  0  0  0  0  0  0
    7.4500   -3.9310   -0.7240 H   0  0  0  0  0  0  0  0  0  0  0  0
    4.1680   -6.3880    0.5010 H   0  0  0  0  0  0  0  0  0  0  0  0
    5.8180   -7.0540    0.4770 H   0  0  0  0  0  0  0  0  0  0  0  0
    5.3650   -5.8410    1.6980 H   0  0  0  0  0  0  0  0  0  0  0  0
    5.7690   -4.6990   -2.4050 H   0  0  0  0  0  0  0  0  0  0  0  0
    6.0540   -6.3870   -1.9190 H   0  0  0  0  0  0  0  0  0  0  0  0
    4.4040   -5.7210   -1.8960 H   0  0  0  0  0  0  0  0  0  0  0  0
 11 12  1  0  0  0  0
 11 13  1  0  0  0  0
 10 11  1  0  0  0  0
  9 10  1  0  0  0  0
  9 22  1  0  0  0  0
  8 22  1  0  0  0  0
  9 14  1  0  0  0  0
  8 29  1  0  0  0  0
 29 69  1  0  0  0  0
  8 25  2  0  0  0  0
  5 69  1  0  0  0  0
 14 28  2  0  0  0  0
 14 23  1  0  0  0  0
  5  6  1  0  0  0  0
  1 23  1  0  0  0  0
  6 17  2  0  0  0  0
 17 18  1  0  0  0  0
  6 21  1  0  0  0  0
 16 30  1  0  0  0  0
  1 16  1  0  0  0  0
 16 27  1  0  0  0  0
  1  2  1  0  0  0  0
 18 19  2  0  0  0  0
 20 21  2  0  0  0  0
 19 20  1  0  0  0  0
  2  3  1  0  0  0  0
  3 15  1  0  0  0  0
  3  4  1  0  0  0  0
  7 15  1  0  0  0  0
  4 26  2  0  0  0  0
  4 24  1  0  0  0  0
  7 24  1  0  0  0  0
  1 31  1  0  0  0  0
  2 32  1  0  0  0  0
  2 33  1  0  0  0  0
  3 34  1  0  0  0  0
  5 35  1  0  0  0  0
  5 36  1  0  0  0  0
  7 37  1  0  0  0  0
  7 38  1  0  0  0  0
  9 39  1  0  0  0  0
 10 40  1  0  0  0  0
 10 41  1  0  0  0  0
 11 42  1  0  0  0  0
 12 43  1  0  0  0  0
 12 44  1  0  0  0  0
 12 45  1  0  0  0  0
 13 46  1  0  0  0  0
 13 47  1  0  0  0  0
 13 48  1  0  0  0  0
 15 49  1  0  0  0  0
 15 50  1  0  0  0  0
 16 51  1  0  0  0  0
 17 52  1  0  0  0  0
 18 53  1  0  0  0  0
 19 54  1  0  0  0  0
 20 55  1  0  0  0  0
 21 56  1  0  0  0  0
 22 57  1  0  0  0  0
 23 58  1  0  0  0  0
 24 59  1  0  0  0  0
 27 60  1  0  0  0  0
 30 61  2  0  0  0  0
 30 62  1  0  0  0  0
 30 63  2  0  0  0  0
 64 69  1  0  0  0  0
 64 65  1  0  0  0  0
 65 66  1  0  0  0  0
 66 67  1  0  0  0  0
 67 68  1  0  0  0  0
 68 69  1  0  0  0  0
 62 70  1  0  0  0  0
 64 71  1  0  0  0  0
 64 72  1  0  0  0  0
 65 73  1  0  0  0  0
 65 74  1  0  0  0  0
 67 75  1  0  0  0  0
 67 76  1  0  0  0  0
 68 77  1  0  0  0  0
 68 78  1  0  0  0  0
 66 79  1  0  0  0  0
 79 80  1  0  0  0  0
 80 81  1  0  0  0  0
 81 82  1  0  0  0  0
 81 83  1  0  0  0  0
 81 84  1  0  0  0  0
 79 85  2  0  0  0  0
 82 86  1  0  0  0  0
 82 87  1  0  0  0  0
 82 88  1  0  0  0  0
 83 89  1  0  0  0  0
 83 90  1  0  0  0  0
 83 91  1  0  0  0  0
 84 92  1  0  0  0  0
 84 93  1  0  0  0  0
 84 94  1  0  0  0  0
M  END
> <OPENEYE_ISO_SMILES>
CC(C)C[C@@H](C(=O)N[C@@H](C[C@@H]1CCNC1=O)[C@@H](O)S(=O)(=O)O)NC(=O)OC2(CCN(CC2)C(=O)OC(C)(C)C)Cc3ccccc3

> <OPENEYE_INCHI>
InChI=1S/C31H48N4O10S/c1-20(2)17-23(26(37)33-24(27(38)46(41,42)43)18-22-11-14-32-25(22)36)34-28(39)44-31(19-21-9-7-6-8-10-21)12-15-35(16-13-31)29(40)45-30(3,4)5/h6-10,20,22-24,27,38H,11-19H2,1-5H3,(H,32,36)(H,33,37)(H,34,39)(H,41,42,43)/t22-,23-,24-,27-/m0/s1

> <OPENEYE_INCHIKEY>
PJEUBFINPIVQHS-TTZMFTMZSA-N

> <FORMULA>
C31H48N4O10S

$$$$
