BZX
  -OEChem-02242320023D

 16 17  0     0  0  0  0  0  0999 V2000
   -0.8360   -1.0840   -0.0520 C   0  0  0  0  0  0  0  0  0  0  0  0
   -1.8780   -0.1690   -0.0030 C   0  0  0  0  0  0  0  0  0  0  0  0
   -1.6060    1.1910    0.0190 C   0  0  0  0  0  0  0  0  0  0  0  0
   -0.2990    1.6370   -0.0080 C   0  0  0  0  0  0  0  0  0  0  0  0
    0.7450    0.7270   -0.0580 C   0  0  0  0  0  0  0  0  0  0  0  0
    0.4750   -0.6390   -0.0800 C   0  0  0  0  0  0  0  0  0  0  0  0
    1.6590   -1.3170   -0.1290 O   0  0  0  0  0  0  0  0  0  0  0  0
    2.6630   -0.3680    0.2760 C   0  0  0  0  0  0  0  0  0  0  0  0
    2.0990    0.9050   -0.0910 O   0  0  0  0  0  0  0  0  0  0  0  0
   -3.1650   -0.6060    0.0240 O   0  0  0  0  0  0  0  0  0  0  0  0
   -1.0480   -2.1430   -0.0650 H   0  0  0  0  0  0  0  0  0  0  0  0
   -2.4180    1.9020    0.0570 H   0  0  0  0  0  0  0  0  0  0  0  0
   -0.0900    2.6960    0.0080 H   0  0  0  0  0  0  0  0  0  0  0  0
    2.8260   -0.4170    1.3520 H   0  0  0  0  0  0  0  0  0  0  0  0
    3.5950   -0.5440   -0.2620 H   0  0  0  0  0  0  0  0  0  0  0  0
   -3.5130   -0.7520    0.9140 H   0  0  0  0  0  0  0  0  0  0  0  0
  1  2  2  0  0  0  0
  1  6  1  0  0  0  0
  2  3  1  0  0  0  0
  2 10  1  0  0  0  0
  3  4  2  0  0  0  0
  4  5  1  0  0  0  0
  5  6  2  0  0  0  0
  5  9  1  0  0  0  0
  6  7  1  0  0  0  0
  7  8  1  0  0  0  0
  8  9  1  0  0  0  0
  1 11  1  0  0  0  0
  3 12  1  0  0  0  0
  4 13  1  0  0  0  0
  8 14  1  0  0  0  0
  8 15  1  0  0  0  0
 10 16  1  0  0  0  0
M  END
> <OPENEYE_ISO_SMILES>
c1cc2c(cc1O)OCO2

> <OPENEYE_INCHI>
InChI=1S/C7H6O3/c8-5-1-2-6-7(3-5)10-4-9-6/h1-3,8H,4H2

> <OPENEYE_INCHIKEY>
LUSZGTFNYDARNI-UHFFFAOYSA-N

> <FORMULA>
C7H6O3

$$$$
