@<TRIPOS>MOLECULE
/home/pku/3cl/gett_pdb/7EAN/7EAN_mol2/ligand/7EAN_NAG.pdb
 28 28 0 0 0
SMALL
GASTEIGER

@<TRIPOS>ATOM
      1  C1        35.8630   41.1010   35.6580 C.3   601  NAG601      0.1078
      2  C2        37.0790   40.3110   36.1190 C.3   601  NAG601      0.0801
      3  C3        37.7670   41.0350   37.2710 C.3   601  NAG601      0.1043
      4  C4        38.0790   42.4770   36.8860 C.3   601  NAG601      0.1110
      5  C5        36.8270   43.1770   36.3650 C.3   601  NAG601      0.1104
      6  C6        37.1080   44.5580   35.8170 C.3   601  NAG601      0.0729
      7  C7        37.4410   37.8800   36.2330 C.2   601  NAG601      0.2103
      8  C8        36.9000   36.5730   36.7160 C.3   601  NAG601      0.0122
      9  N2        36.7040   38.9590   36.5150 N.am  601  NAG601     -0.3075
     10  O3        38.9670   40.3500   37.6080 O.3   601  NAG601     -0.3872
     11  O4        38.5820   43.1810   38.0160 O.3   601  NAG601     -0.3865
     12  O5        36.2630   42.4170   35.2880 O.3   601  NAG601     -0.3639
     13  O6        35.9060   45.2550   35.5230 O.3   601  NAG601     -0.3924
     14  O7        38.4910   37.9540   35.6190 O.2   601  NAG601     -0.2761
     15  H1        35.2170   41.1530   36.3880 H     601  NAG601      0.0642
     16  H2        37.7100   40.2530   35.3760 H     601  NAG601      0.0551
     17  H3        37.1710   41.0380   38.0440 H     601  NAG601      0.0639
     18  H4        38.7530   42.4780   36.1800 H     601  NAG601      0.0646
     19  H5        36.1750   43.2460   37.0880 H     601  NAG601      0.0646
     20  H61       37.6180   45.0650   36.4770 H     601  NAG601      0.0584
     21  H62       37.6360   44.4750   35.0000 H     601  NAG601      0.0584
     22  H81       37.6070   35.9000   36.6920 H     601  NAG601      0.0322
     23  H82       36.5760   36.6730   37.6310 H     601  NAG601      0.0322
     24  H83       36.1640   36.2920   36.1390 H     601  NAG601      0.0322
     25  HN2       35.9270   38.8440   36.9790 H     601  NAG601      0.1491
     26  HO3       39.0550   40.3270   38.4910 H     601  NAG601      0.2100
     27  HO4       39.4520   43.3260   37.9110 H     601  NAG601      0.2100
     28  HO6       36.0790   46.1170   35.4010 H     601  NAG601      0.2095
@<TRIPOS>BOND
     1    21     6    1
     2    12     1    1
     3    12     5    1
     4    16     2    1
     5    28    13    1
     6    13     6    1
     7    14     7    2
     8     1     2    1
     9     1    15    1
    10     6     5    1
    11     6    20    1
    12     2     9    1
    13     2     3    1
    14    24     8    1
    15    18     4    1
    16     7     9   am
    17     7     8    1
    18     5     4    1
    19     5    19    1
    20     9    25    1
    21    22     8    1
    22     8    23    1
    23     4     3    1
    24     4    11    1
    25     3    10    1
    26     3    17    1
    27    10    26    1
    28    27    11    1
