9IN
  -OEChem-02242320013D

 94 95  0     1  0  0  0  0  0999 V2000
   -9.0680    0.1400   -2.3460 C   0  0  0  0  0  0  0  0  0  0  0  0
  -10.6720   -0.0380   -0.7660 C   0  0  0  0  0  0  0  0  0  0  0  0
  -11.2420    0.1140   -1.9710 C   0  0  0  0  0  0  0  0  0  0  0  0
  -10.2810    0.2150   -2.9020 O   0  0  0  0  0  0  0  0  0  0  0  0
   -9.2210   -0.0160   -1.0000 C   0  0  0  0  0  0  0  0  0  0  0  0
   -8.1530   -0.1430    0.0090 C   0  0  0  0  0  0  0  0  0  0  0  0
   -8.4390   -0.2790    1.1830 O   0  0  0  0  0  0  0  0  0  0  0  0
   -6.8600   -0.1090   -0.3700 N   0  0  0  0  0  0  0  0  0  0  0  0
   -5.8000   -0.2350    0.6320 C   0  0  1  0  0  0  0  0  0  0  0  0
   -5.5290   -1.7160    0.9040 C   0  0  0  0  0  0  0  0  0  0  0  0
   -6.8040   -2.3810    1.4250 C   0  0  0  0  0  0  0  0  0  0  0  0
   -5.0900   -2.4010   -0.3910 C   0  0  0  0  0  0  0  0  0  0  0  0
   -4.5430    0.4190    0.1190 C   0  0  0  0  0  0  0  0  0  0  0  0
   -4.5340    0.9400   -0.9760 O   0  0  0  0  0  0  0  0  0  0  0  0
   -3.4290    0.4260    0.8770 N   0  0  0  0  0  0  0  0  0  0  0  0
   -2.2070    1.0630    0.3790 C   0  0  1  0  0  0  0  0  0  0  0  0
   -2.2500    2.5610    0.6870 C   0  0  0  0  0  0  0  0  0  0  0  0
   -1.0160    3.2400    0.0890 C   0  0  0  0  0  0  0  0  0  0  0  0
   -3.5140    3.1710    0.0790 C   0  0  0  0  0  0  0  0  0  0  0  0
   -1.0080    0.4450    1.0510 C   0  0  0  0  0  0  0  0  0  0  0  0
   -1.1130   -0.0260    2.1640 O   0  0  0  0  0  0  0  0  0  0  0  0
    0.1800    0.4160    0.4160 N   0  0  0  0  0  0  0  0  0  0  0  0
    1.3240   -0.2610    1.0330 C   0  0  1  0  0  0  0  0  0  0  0  0
    1.2740   -1.7530    0.6970 C   0  0  0  0  0  0  0  0  0  0  0  0
    0.0370   -2.3800    1.3420 C   0  0  0  0  0  0  0  0  0  0  0  0
   -0.0810   -3.8410    0.9050 C   0  0  0  0  0  0  0  0  0  0  0  0
    0.1650   -2.3120    2.8650 C   0  0  0  0  0  0  0  0  0  0  0  0
    2.6040    0.3310    0.5020 C   0  0  0  0  0  0  0  0  0  0  0  0
    2.5650    1.2300   -0.3110 O   0  0  0  0  0  0  0  0  0  0  0  0
    3.7920   -0.1380    0.9310 N   0  0  0  0  0  0  0  0  0  0  0  0
    5.0350    0.3590    0.3350 C   0  0  2  0  0  0  0  0  0  0  0  0
    6.1020   -0.6990    0.4430 C   0  0  0  0  0  0  0  0  0  0  0  0
    5.4870    1.6180    1.0770 C   0  0  0  0  0  0  0  0  0  0  0  0
    6.6980    2.2240    0.3640 C   0  0  2  0  0  0  0  0  0  0  0  0
    7.2850    3.3910    1.1900 C   0  0  0  0  0  0  0  0  0  0  0  0
    7.7170    4.3760    0.0810 C   0  0  0  0  0  0  0  0  0  0  0  0
    6.8580    4.0720   -1.0690 N   0  0  0  0  0  0  0  0  0  0  0  0
    6.2780    2.8630   -0.9410 C   0  0  0  0  0  0  0  0  0  0  0  0
    5.5260    2.3640   -1.7520 O   0  0  0  0  0  0  0  0  0  0  0  0
    6.6720   -1.1840   -0.6570 C   0  0  0  0  0  0  0  0  0  0  0  0
    7.7130   -2.2160   -0.5520 C   0  0  0  0  0  0  0  0  0  0  0  0
    8.0540   -2.6260    0.5400 O   0  0  0  0  0  0  0  0  0  0  0  0
    8.2890   -2.7080   -1.6670 O   0  0  0  0  0  0  0  0  0  0  0  0
    9.3180   -3.7270   -1.5630 C   0  0  0  0  0  0  0  0  0  0  0  0
    9.8020   -4.1090   -2.9630 C   0  0  0  0  0  0  0  0  0  0  0  0
   -8.1270    0.1940   -2.8740 H   0  0  0  0  0  0  0  0  0  0  0  0
  -11.1760   -0.1460    0.1830 H   0  0  0  0  0  0  0  0  0  0  0  0
  -12.3050    0.1450   -2.1610 H   0  0  0  0  0  0  0  0  0  0  0  0
   -6.6320   -0.0010   -1.3070 H   0  0  0  0  0  0  0  0  0  0  0  0
   -6.1120    0.2520    1.5560 H   0  0  0  0  0  0  0  0  0  0  0  0
   -4.7390   -1.8100    1.6500 H   0  0  0  0  0  0  0  0  0  0  0  0
   -6.6110   -3.4360    1.6190 H   0  0  0  0  0  0  0  0  0  0  0  0
   -7.1170   -1.8930    2.3490 H   0  0  0  0  0  0  0  0  0  0  0  0
   -7.5940   -2.2870    0.6800 H   0  0  0  0  0  0  0  0  0  0  0  0
   -4.1810   -1.9270   -0.7630 H   0  0  0  0  0  0  0  0  0  0  0  0
   -4.8970   -3.4560   -0.1980 H   0  0  0  0  0  0  0  0  0  0  0  0
   -5.8790   -2.3070   -1.1370 H   0  0  0  0  0  0  0  0  0  0  0  0
   -3.4360    0.0100    1.7530 H   0  0  0  0  0  0  0  0  0  0  0  0
   -2.1350    0.9160   -0.6990 H   0  0  0  0  0  0  0  0  0  0  0  0
   -2.2590    2.7090    1.7670 H   0  0  0  0  0  0  0  0  0  0  0  0
   -1.0090    3.0940   -0.9910 H   0  0  0  0  0  0  0  0  0  0  0  0
   -1.0450    4.3070    0.3120 H   0  0  0  0  0  0  0  0  0  0  0  0
   -0.1160    2.8030    0.5210 H   0  0  0  0  0  0  0  0  0  0  0  0
   -4.3930    2.6870    0.5050 H   0  0  0  0  0  0  0  0  0  0  0  0
   -3.5440    4.2380    0.2990 H   0  0  0  0  0  0  0  0  0  0  0  0
   -3.5050    3.0230   -1.0010 H   0  0  0  0  0  0  0  0  0  0  0  0
    0.2780    0.8440   -0.4490 H   0  0  0  0  0  0  0  0  0  0  0  0
    1.2840   -0.1300    2.1140 H   0  0  0  0  0  0  0  0  0  0  0  0
    1.2250   -1.8800   -0.3840 H   0  0  0  0  0  0  0  0  0  0  0  0
    2.1700   -2.2410    1.0800 H   0  0  0  0  0  0  0  0  0  0  0  0
   -0.8530   -1.8340    1.0280 H   0  0  0  0  0  0  0  0  0  0  0  0
    0.8090   -4.3870    1.2190 H   0  0  0  0  0  0  0  0  0  0  0  0
   -0.9630   -4.2880    1.3650 H   0  0  0  0  0  0  0  0  0  0  0  0
   -0.1730   -3.8900   -0.1800 H   0  0  0  0  0  0  0  0  0  0  0  0
    0.2490   -1.2700    3.1760 H   0  0  0  0  0  0  0  0  0  0  0  0
   -0.7160   -2.7580    3.3250 H   0  0  0  0  0  0  0  0  0  0  0  0
    1.0550   -2.8580    3.1790 H   0  0  0  0  0  0  0  0  0  0  0  0
    3.8250   -0.8060    1.6340 H   0  0  0  0  0  0  0  0  0  0  0  0
    4.8640    0.5980   -0.7150 H   0  0  0  0  0  0  0  0  0  0  0  0
    6.4060   -1.0630    1.4140 H   0  0  0  0  0  0  0  0  0  0  0  0
    4.6740    2.3440    1.0920 H   0  0  0  0  0  0  0  0  0  0  0  0
    5.7610    1.3590    2.1000 H   0  0  0  0  0  0  0  0  0  0  0  0
    7.4560    1.4610    0.1880 H   0  0  0  0  0  0  0  0  0  0  0  0
    6.5250    3.8360    1.8320 H   0  0  0  0  0  0  0  0  0  0  0  0
    8.1440    3.0610    1.7750 H   0  0  0  0  0  0  0  0  0  0  0  0
    7.5610    5.4040    0.4070 H   0  0  0  0  0  0  0  0  0  0  0  0
    8.7640    4.2170   -0.1780 H   0  0  0  0  0  0  0  0  0  0  0  0
    6.7260    4.6640   -1.8260 H   0  0  0  0  0  0  0  0  0  0  0  0
    6.3680   -0.8200   -1.6280 H   0  0  0  0  0  0  0  0  0  0  0  0
    8.9090   -4.6080   -1.0670 H   0  0  0  0  0  0  0  0  0  0  0  0
   10.1560   -3.3400   -0.9820 H   0  0  0  0  0  0  0  0  0  0  0  0
   10.5740   -4.8740   -2.8850 H   0  0  0  0  0  0  0  0  0  0  0  0
    8.9640   -4.4960   -3.5440 H   0  0  0  0  0  0  0  0  0  0  0  0
   10.2110   -3.2280   -3.4580 H   0  0  0  0  0  0  0  0  0  0  0  0
  1  4  1  0  0  0  0
  1  5  2  0  0  0  0
  1 46  1  0  0  0  0
  2  3  2  0  0  0  0
  2  5  1  0  0  0  0
  2 47  1  0  0  0  0
  3  4  1  0  0  0  0
  3 48  1  0  0  0  0
  5  6  1  0  0  0  0
  6  7  2  0  0  0  0
  6  8  1  0  0  0  0
  8  9  1  0  0  0  0
  8 49  1  0  0  0  0
  9 10  1  0  0  0  0
  9 13  1  0  0  0  0
  9 50  1  0  0  0  0
 10 11  1  0  0  0  0
 10 12  1  0  0  0  0
 10 51  1  0  0  0  0
 11 52  1  0  0  0  0
 11 53  1  0  0  0  0
 11 54  1  0  0  0  0
 12 55  1  0  0  0  0
 12 56  1  0  0  0  0
 12 57  1  0  0  0  0
 13 14  2  0  0  0  0
 13 15  1  0  0  0  0
 15 16  1  0  0  0  0
 15 58  1  0  0  0  0
 16 17  1  0  0  0  0
 16 20  1  0  0  0  0
 16 59  1  0  0  0  0
 17 18  1  0  0  0  0
 17 19  1  0  0  0  0
 17 60  1  0  0  0  0
 18 61  1  0  0  0  0
 18 62  1  0  0  0  0
 18 63  1  0  0  0  0
 19 64  1  0  0  0  0
 19 65  1  0  0  0  0
 19 66  1  0  0  0  0
 20 21  2  0  0  0  0
 20 22  1  0  0  0  0
 22 23  1  0  0  0  0
 22 67  1  0  0  0  0
 23 24  1  0  0  0  0
 23 28  1  0  0  0  0
 23 68  1  0  0  0  0
 24 25  1  0  0  0  0
 24 69  1  0  0  0  0
 24 70  1  0  0  0  0
 25 26  1  0  0  0  0
 25 27  1  0  0  0  0
 25 71  1  0  0  0  0
 26 72  1  0  0  0  0
 26 73  1  0  0  0  0
 26 74  1  0  0  0  0
 27 75  1  0  0  0  0
 27 76  1  0  0  0  0
 27 77  1  0  0  0  0
 28 29  2  0  0  0  0
 28 30  1  0  0  0  0
 30 31  1  0  0  0  0
 30 78  1  0  0  0  0
 31 32  1  0  0  0  0
 31 33  1  0  0  0  0
 31 79  1  0  0  0  0
 32 40  2  0  0  0  0
 32 80  1  0  0  0  0
 33 34  1  0  0  0  0
 33 81  1  0  0  0  0
 33 82  1  0  0  0  0
 34 35  1  0  0  0  0
 34 38  1  0  0  0  0
 34 83  1  0  0  0  0
 35 36  1  0  0  0  0
 35 84  1  0  0  0  0
 35 85  1  0  0  0  0
 36 37  1  0  0  0  0
 36 86  1  0  0  0  0
 36 87  1  0  0  0  0
 37 38  1  0  0  0  0
 37 88  1  0  0  0  0
 38 39  2  0  0  0  0
 40 41  1  0  0  0  0
 40 89  1  0  0  0  0
 41 42  2  0  0  0  0
 41 43  1  0  0  0  0
 43 44  1  0  0  0  0
 44 45  1  0  0  0  0
 44 90  1  0  0  0  0
 44 91  1  0  0  0  0
 45 92  1  0  0  0  0
 45 93  1  0  0  0  0
 45 94  1  0  0  0  0
M  END
> <OPENEYE_ISO_SMILES>
CCOC(=O)/C=C/[C@H](C[C@@H]1CCNC1=O)NC(=O)[C@H](CC(C)C)NC(=O)[C@H](C(C)C)NC(=O)[C@H](C(C)C)NC(=O)c2ccoc2

> <OPENEYE_INCHI>
InChI=1S/C32H49N5O8/c1-8-45-25(38)10-9-23(16-21-11-13-33-28(21)39)34-30(41)24(15-18(2)3)35-31(42)26(19(4)5)37-32(43)27(20(6)7)36-29(40)22-12-14-44-17-22/h9-10,12,14,17-21,23-24,26-27H,8,11,13,15-16H2,1-7H3,(H,33,39)(H,34,41)(H,35,42)(H,36,40)(H,37,43)/b10-9+/t21-,23+,24-,26-,27-/m0/s1

> <OPENEYE_INCHIKEY>
JQGYBVLTABWBOF-VTQXMFKGSA-N

> <FORMULA>
C32H49N5O8

$$$$
