@<TRIPOS>MOLECULE
/home/pku/3cl/gett_pdb/7DPP/7DPP_mol2/ligand/7DPP_MYC.pdb
 23 25 0 0 0
SMALL
GASTEIGER

@<TRIPOS>ATOM
      1  C1       -14.2650   14.0960   72.3130 C.ar  401  MYC401      0.0843
      2  C2       -14.8950   15.1330   71.6670 C.ar  401  MYC401      0.2050
      3  C3       -14.1830   15.9610   70.7670 C.ar  401  MYC401      0.1158
      4  C4       -12.8320   15.6770   70.5650 C.ar  401  MYC401      0.1549
      5  C5       -12.1700   14.6410   71.1970 C.ar  401  MYC401      0.0798
      6  C6       -12.9040   13.8540   72.0740 C.ar  401  MYC401      0.2020
      7  C9       -14.7910   17.0780   70.0550 C.ar  401  MYC401      0.2433
      8  C10      -13.9290   17.8170   69.1740 C.ar  401  MYC401      0.2685
      9  C11      -12.6150   17.4790   69.0110 C.ar  401  MYC401      0.1873
     10  C14      -11.6620   18.1840   68.1420 C.ar  401  MYC401      0.0445
     11  C15      -10.4230   18.5950   68.6500 C.ar  401  MYC401      0.0487
     12  C16       -9.5230   19.2640   67.8450 C.ar  401  MYC401      0.2376
     13  C17       -9.8460   19.5390   66.5180 C.ar  401  MYC401      0.2727
     14  C18      -11.0780   19.1340   66.0050 C.ar  401  MYC401      0.2376
     15  C19      -11.9850   18.4670   66.8070 C.ar  401  MYC401      0.0487
     16  O12      -12.0770   16.4330   69.7160 O.2   401  MYC401     -0.4498
     17  O13      -16.0010   17.3990   70.1820 O.2   401  MYC401     -0.2828
     18  O23      -11.3480   19.4240   64.6960 O.3   401  MYC401     -0.2830
     19  O24       -8.9540   20.2000   65.7250 O.3   401  MYC401     -0.2797
     20  O25       -8.3040   19.6760   68.3110 O.3   401  MYC401     -0.2830
     21  O27      -14.4780   18.8600   68.5040 O.3   401  MYC401     -0.2798
     22  O29      -12.2970   12.8300   72.7170 O.3   401  MYC401     -0.2864
     23  O30      -16.2060   15.3650   71.8970 O.3   401  MYC401     -0.2862
@<TRIPOS>BOND
     1    18    14    1
     2    19    13    1
     3    14    13   ar
     4    14    15   ar
     5    13    12   ar
     6    15    10   ar
     7    12    20    1
     8    12    11   ar
     9    10    11   ar
    10    10     9    1
    11    21     8    1
    12     9     8   ar
    13     9    16   ar
    14     8     7   ar
    15    16     4   ar
    16     7    17    2
    17     7     3   ar
    18     4     3   ar
    19     4     5   ar
    20     3     2   ar
    21     5     6   ar
    22     2    23    1
    23     2     1   ar
    24     6     1   ar
    25     6    22    1
