@<TRIPOS>MOLECULE
/home/pku/3cl/gett_pdb/5SRB/5SRB_mol2/ligand/5SRB_R0R.pdb
 39 43 0 0 0
SMALL
GASTEIGER

@<TRIPOS>ATOM
      1  N1       -45.4090  -29.2670    2.9630 N.pl3 201  R0R201     -0.3102
      2  C16      -44.2270  -29.1830   -0.2520 C.3   201  R0R201      0.0604
      3  C17      -43.3910  -30.9210    0.1670 C.3   201  R0R201      0.0604
      4  C15      -44.5290  -30.1810    0.8460 C.3   201  R0R201      0.0789
      5  C14      -44.1860  -29.7630    2.3050 C.3   201  R0R201      0.0270
      6  C13      -44.2990  -29.2330    6.3680 C.ar  201  R0R201      0.1204
      7  O2       -47.1020  -29.3520   -0.7230 O.co2 201  R0R201     -0.2427
      8  C12      -46.5110  -29.1620    6.5420 C.ar  201  R0R201      0.1442
      9  C11      -49.0500  -29.1230    3.8840 C.ar  201  R0R201     -0.0491
     10  O3       -47.4310  -31.5090   -0.6450 O.co2 201  R0R201     -0.2427
     11  C10      -50.4330  -29.0810    4.1300 C.ar  201  R0R201     -0.0257
     12  C9       -50.9110  -29.0500    5.4370 C.ar  201  R0R201      0.1254
     13  C8       -50.0180  -29.0580    6.4920 C.ar  201  R0R201     -0.0025
     14  C7       -48.6580  -29.1010    6.2590 C.ar  201  R0R201      0.0515
     15  C6       -48.1280  -29.1370    4.9510 C.ar  201  R0R201      0.0124
     16  C5       -46.6750  -29.1790    5.1440 C.ar  201  R0R201      0.0663
     17  C4       -45.4660  -29.2350    4.4280 C.ar  201  R0R201      0.1345
     18  C3       -46.5370  -29.6980    2.1470 C.3   201  R0R201      0.0590
     19  C2       -45.9880  -30.5990    1.0610 C.3   201  R0R201      0.2377
     20  C1       -46.8870  -30.4730   -0.1820 C.2   201  R0R201      0.3947
     21  O1       -42.9360  -29.7420   -0.5020 O.3   201  R0R201     -0.3782
     22  F1       -52.2590  -29.0020    5.6730 F     201  R0R201     -0.2054
     23  F2       -46.0210  -31.8860    1.4980 F     201  R0R201     -0.2273
     24  N2       -47.6690  -29.1190    7.0760 N.ar  201  R0R201     -0.3389
     25  N3       -45.3390  -29.1900    7.1890 N.ar  201  R0R201     -0.2178
     26  N4       -44.3160  -29.2520    5.0570 N.ar  201  R0R201     -0.2200
     27  H10      -44.1900  -28.3100    0.0760 H     201  R0R201      0.0568
     28  H11      -44.8210  -29.2020   -1.0030 H     201  R0R201      0.0568
     29  H13      -43.7100  -31.5700   -0.4700 H     201  R0R201      0.0568
     30  H12      -42.7570  -31.2840    0.8130 H     201  R0R201      0.0568
     31  H9       -43.8620  -30.5360    2.7950 H     201  R0R201      0.0472
     32  H8       -43.5130  -29.0690    2.3010 H     201  R0R201      0.0472
     33  H7       -43.4600  -29.2390    6.7640 H     201  R0R201      0.1048
     34  H5       -48.7460  -29.1390    3.0010 H     201  R0R201      0.0625
     35  H4       -51.0290  -29.0720    3.4160 H     201  R0R201      0.0646
     36  H3       -50.3270  -29.0400    7.3650 H     201  R0R201      0.0667
     37  H1       -47.1290  -30.2260    2.6930 H     201  R0R201      0.0501
     38  H2       -46.9950  -28.9300    1.7650 H     201  R0R201      0.0501
     39  H6       -47.7820  -29.1030    7.9600 H     201  R0R201      0.1673
@<TRIPOS>BOND
     1    28     2    1
     2     7    20   ar
     3    10    20   ar
     4    21     2    1
     5    21     3    1
     6    29     3    1
     7     2    27    1
     8     2     4    1
     9    20    19    1
    10     3    30    1
    11     3     4    1
    12     4    19    1
    13     4     5    1
    14    19    23    1
    15    19    18    1
    16    38    18    1
    17    18    37    1
    18    18     1    1
    19    32     5    1
    20     5    31    1
    21     5     1    1
    22     1    17    1
    23    34     9    1
    24    35    11    1
    25     9    11   ar
    26     9    15   ar
    27    11    12   ar
    28    17    26   ar
    29    17    16   ar
    30    15    16   ar
    31    15    14   ar
    32    26     6   ar
    33    16     8   ar
    34    12    22    1
    35    12    13   ar
    36    14    13   ar
    37    14    24   ar
    38     6    33    1
    39     6    25   ar
    40    13    36    1
    41     8    24   ar
    42     8    25   ar
    43    24    39    1
