T5G
  -OEChem-02242320043D

 17 17  0     0  0  0  0  0  0999 V2000
    0.6430    1.1970   -0.0460 C   0  0  0  0  0  0  0  0  0  0  0  0
   -0.7390    1.1980   -0.0220 C   0  0  0  0  0  0  0  0  0  0  0  0
    3.6190    0.0030    1.4750 N   0  0  0  0  0  0  0  0  0  0  0  0
   -1.4310   -0.0000   -0.0100 C   0  0  0  0  0  0  0  0  0  0  0  0
    3.4850   -1.2510   -0.6460 O   0  0  0  0  0  0  0  0  0  0  0  0
   -0.7390   -1.1980   -0.0220 C   0  0  0  0  0  0  0  0  0  0  0  0
    0.6430   -1.1970   -0.0460 C   0  0  0  0  0  0  0  0  0  0  0  0
    1.3340   -0.0000   -0.0580 C   0  0  0  0  0  0  0  0  0  0  0  0
    3.4850    1.2480   -0.6510 O   0  0  0  0  0  0  0  0  0  0  0  0
    3.0950   -0.0000   -0.0950 S   0  0  0  0  0  0  0  0  0  0  0  0
   -3.3220    0.0000    0.0230 Br  0  0  0  0  0  0  0  0  0  0  0  0
    1.1830    2.1320   -0.0600 H   0  0  0  0  0  0  0  0  0  0  0  0
   -1.2790    2.1330   -0.0130 H   0  0  0  0  0  0  0  0  0  0  0  0
    4.5690    0.0040    1.6700 H   0  0  0  0  0  0  0  0  0  0  0  0
    2.9750    0.0050    2.2010 H   0  0  0  0  0  0  0  0  0  0  0  0
   -1.2790   -2.1330   -0.0130 H   0  0  0  0  0  0  0  0  0  0  0  0
    1.1830   -2.1330   -0.0560 H   0  0  0  0  0  0  0  0  0  0  0  0
  4 11  1  0  0  0  0
  4  6  2  0  0  0  0
  6  7  1  0  0  0  0
  7  8  2  0  0  0  0
  8 10  1  0  0  0  0
  3 10  1  0  0  0  0
  5 10  2  0  0  0  0
  9 10  2  0  0  0  0
  1  8  1  0  0  0  0
  1  2  2  0  0  0  0
  2  4  1  0  0  0  0
  1 12  1  0  0  0  0
  2 13  1  0  0  0  0
  3 14  1  0  0  0  0
  3 15  1  0  0  0  0
  6 16  1  0  0  0  0
  7 17  1  0  0  0  0
M  END
> <OPENEYE_ISO_SMILES>
c1cc(ccc1S(=O)(=O)N)Br

> <OPENEYE_INCHI>
InChI=1S/C6H6BrNO2S/c7-5-1-3-6(4-2-5)11(8,9)10/h1-4H,(H2,8,9,10)

> <OPENEYE_INCHIKEY>
STYQHICBPYRHQK-UHFFFAOYSA-N

> <FORMULA>
C6H6BrNO2S

$$$$
