WQ4
  -OEChem-02242320043D

 14 14  0     0  0  0  0  0  0999 V2000
    3.0250   -1.1630    0.0000 N   0  0  0  0  0  0  0  0  0  0  0  0
    0.1710    0.9840    0.0020 C   0  0  0  0  0  0  0  0  0  0  0  0
    1.9500   -0.7960    0.0000 C   0  0  0  0  0  0  0  0  0  0  0  0
    0.5950   -0.3340    0.0000 C   0  0  0  0  0  0  0  0  0  0  0  0
   -0.5280   -1.1070   -0.0010 N   0  0  0  0  0  0  0  0  0  0  0  0
    0.9720    2.1080   -0.0020 N   0  0  0  0  0  0  0  0  0  0  0  0
   -1.1740    0.9540    0.0020 O   0  0  0  0  0  0  0  0  0  0  0  0
   -1.5670   -0.3300   -0.0000 C   0  0  0  0  0  0  0  0  0  0  0  0
   -3.0000   -0.7980   -0.0010 C   0  0  0  0  0  0  0  0  0  0  0  0
    0.5690    2.9900   -0.0040 H   0  0  0  0  0  0  0  0  0  0  0  0
    1.9370    2.0150   -0.0020 H   0  0  0  0  0  0  0  0  0  0  0  0
   -3.3450   -0.9110    1.0270 H   0  0  0  0  0  0  0  0  0  0  0  0
   -3.6210   -0.0640   -0.5140 H   0  0  0  0  0  0  0  0  0  0  0  0
   -3.0690   -1.7560   -0.5160 H   0  0  0  0  0  0  0  0  0  0  0  0
  1  3  3  0  0  0  0
  3  4  1  0  0  0  0
  4  5  1  0  0  0  0
  5  8  2  0  0  0  0
  2  4  2  0  0  0  0
  8  9  1  0  0  0  0
  7  8  1  0  0  0  0
  2  7  1  0  0  0  0
  2  6  1  0  0  0  0
  6 10  1  0  0  0  0
  6 11  1  0  0  0  0
  9 12  1  0  0  0  0
  9 13  1  0  0  0  0
  9 14  1  0  0  0  0
M  END
> <OPENEYE_ISO_SMILES>
Cc1nc(c(o1)N)C#N

> <OPENEYE_INCHI>
InChI=1S/C5H5N3O/c1-3-8-4(2-6)5(7)9-3/h7H2,1H3

> <OPENEYE_INCHIKEY>
OVIXKBXQNCJGDG-UHFFFAOYSA-N

> <FORMULA>
C5H5N3O

$$$$
