LRF
  -OEChem-02242320033D

 24 24  0     1  0  0  0  0  0999 V2000
   -0.9040   -0.3660    0.0140 N   0  0  2  0  0  0  0  0  0  0  0  0
    2.4080    1.7020   -0.0040 N   0  0  0  0  0  0  0  0  0  0  0  0
    0.3500    0.2140    0.0180 C   0  0  0  0  0  0  0  0  0  0  0  0
    2.6680    0.4360    0.0670 C   0  0  0  0  0  0  0  0  0  0  0  0
    4.0840   -0.0750    0.1310 C   0  0  0  0  0  0  0  0  0  0  0  0
    1.5790   -0.4340    0.0830 C   0  0  0  0  0  0  0  0  0  0  0  0
    1.7120   -1.8570    0.1590 C   0  0  0  0  0  0  0  0  0  0  0  0
   -1.0310   -1.3390   -1.0800 C   0  0  0  0  0  0  0  0  0  0  0  0
   -1.9560    0.6560   -0.0660 C   0  0  0  0  0  0  0  0  0  0  0  0
   -3.2980    0.0150    0.1770 C   0  0  0  0  0  0  0  0  0  0  0  0
   -3.3710   -1.1760    0.3960 O   0  0  0  0  0  0  0  0  0  0  0  0
   -4.4180    0.7650    0.1520 N   0  0  0  0  0  0  0  0  0  0  0  0
    0.7250    1.8910   -0.0570 S   0  0  0  0  0  0  0  0  0  0  0  0
    1.8180   -2.9870    0.2200 N   0  0  0  0  0  0  0  0  0  0  0  0
    4.3980   -0.1460    1.1720 H   0  0  0  0  0  0  0  0  0  0  0  0
    4.1360   -1.0610   -0.3320 H   0  0  0  0  0  0  0  0  0  0  0  0
    4.7420    0.6110   -0.4010 H   0  0  0  0  0  0  0  0  0  0  0  0
   -0.9450   -0.8230   -2.0370 H   0  0  0  0  0  0  0  0  0  0  0  0
   -0.2390   -2.0840   -0.9970 H   0  0  0  0  0  0  0  0  0  0  0  0
   -2.0010   -1.8310   -1.0180 H   0  0  0  0  0  0  0  0  0  0  0  0
   -1.7770    1.4210    0.6880 H   0  0  0  0  0  0  0  0  0  0  0  0
   -1.9460    1.1120   -1.0560 H   0  0  0  0  0  0  0  0  0  0  0  0
   -4.3600    1.7170   -0.0220 H   0  0  0  0  0  0  0  0  0  0  0  0
   -5.2820    0.3530    0.3090 H   0  0  0  0  0  0  0  0  0  0  0  0
  1  8  1  0  0  0  0
  1  9  1  0  0  0  0
  9 10  1  0  0  0  0
 10 11  2  0  0  0  0
 10 12  1  0  0  0  0
  1  3  1  0  0  0  0
  3 13  1  0  0  0  0
  2 13  1  0  0  0  0
  2  4  2  0  0  0  0
  4  5  1  0  0  0  0
  4  6  1  0  0  0  0
  6  7  1  0  0  0  0
  7 14  3  0  0  0  0
  3  6  2  0  0  0  0
  5 15  1  0  0  0  0
  5 16  1  0  0  0  0
  5 17  1  0  0  0  0
  8 18  1  0  0  0  0
  8 19  1  0  0  0  0
  8 20  1  0  0  0  0
  9 21  1  0  0  0  0
  9 22  1  0  0  0  0
 12 23  1  0  0  0  0
 12 24  1  0  0  0  0
M  END
> <OPENEYE_ISO_SMILES>
Cc1c(c(sn1)[N@](C)CC(=O)N)C#N

> <OPENEYE_INCHI>
InChI=1S/C8H10N4OS/c1-5-6(3-9)8(14-11-5)12(2)4-7(10)13/h4H2,1-2H3,(H2,10,13)

> <OPENEYE_INCHIKEY>
BCFQGXBWVPWHCV-UHFFFAOYSA-N

> <FORMULA>
C8H10N4OS

$$$$
