@<TRIPOS>MOLECULE
/home/pku/3cl/gett_pdb/7S73/7S73_mol2/ligand/7S73_I69.pdb
 35 37 0 0 0
SMALL
GASTEIGER

@<TRIPOS>ATOM
      1  C1        -6.1890  -12.5700  -18.7230 C.3   401  I69401      0.0018
      2  C11       -9.5900  -16.9010  -18.3990 C.3   401  I69401      0.1727
      3  C12       -9.8610  -15.7100  -17.4980 C.2   401  I69401      0.2459
      4  C13       -7.9970  -14.4650  -18.6330 C.3   401  I69401      0.0938
      5  C14       -9.4880  -13.3400  -17.0660 C.3   401  I69401      0.1535
      6  C15      -10.9330  -12.9650  -17.2740 C.2   401  I69401      0.2595
      7  C16       -7.4100  -13.1870  -18.0370 C.3   401  I69401      0.0204
      8  C17      -13.0400  -12.2290  -16.3780 C.3   401  I69401      0.1287
      9  C19      -14.0090  -13.0830  -15.5490 C.3   401  I69401      0.0335
     10  C2        -6.0610  -13.1680  -17.3210 C.3   401  I69401      0.0018
     11  C20      -14.1390  -14.5240  -16.0450 C.3   401  I69401      0.0818
     12  C21      -14.8940  -14.7040  -17.3640 C.3   401  I69401      0.0326
     13  C22      -15.6420  -16.0220  -17.1880 C.3   401  I69401      0.1156
     14  C24      -14.9540  -15.3790  -15.0890 C.2   401  I69401      0.2410
     15  C26      -10.3800  -18.3970  -20.2290 C.3   401  I69401      0.0022
     16  C27       -6.4110  -21.3970  -17.6200 C.3   401  I69401      0.0218
     17  C28       -6.0190  -20.5110  -15.3380 C.3   401  I69401      0.0218
     18  C29       -5.0960  -19.2680  -17.2620 C.3   401  I69401      0.0218
     19  C30      -10.7920  -17.2790  -19.2740 C.3   401  I69401      0.0270
     20  C31      -11.2240  -16.0800  -20.1110 C.3   401  I69401      0.0022
     21  C32      -11.9830  -17.7950  -18.4730 C.3   401  I69401      0.0022
     22  C34       -8.5550  -12.2620  -17.6580 C.3   401  I69401      0.0309
     23  C7        -6.2720  -20.1240  -16.7900 C.3   401  I69401      0.0804
     24  C8       -13.1210  -10.7460  -16.0100 C.3   401  I69401      0.2036
     25  C9        -7.9810  -18.5750  -17.7700 C.2   401  I69401      0.3395
     26  N10       -9.1780  -18.0290  -17.5890 N.am  401  I69401     -0.1796
     27  N13       -9.1580  -14.5930  -17.7470 N.am  401  I69401     -0.2716
     28  N16      -11.6430  -12.6450  -16.1990 N.am  401  I69401     -0.2031
     29  N23      -15.7710  -16.1810  -15.7500 N.am  401  I69401     -0.2054
     30  N8        -7.5480  -19.3920  -16.8200 N.am  401  I69401     -0.1906
     31  O26      -14.8570  -15.2960  -13.8780 O.2   401  I69401     -0.2734
     32  O29       -7.3680  -18.3330  -18.8110 O.2   401  I69401     -0.2492
     33  O33      -10.6540  -15.7920  -16.5600 O.2   401  I69401     -0.2730
     34  O38      -11.3970  -12.9870  -18.3980 O.2   401  I69401     -0.2716
     35  O9       -14.4350  -10.1700  -16.0830 O.3   401  I69401     -0.2185
@<TRIPOS>BOND
     1    15    19    1
     2    20    19    1
     3    19    21    1
     4    19     2    1
     5    32    25    2
     6     1     7    1
     7     1    10    1
     8     4     7    1
     9     4    27    1
    10     2    26    1
    11     2     3    1
    12    34     6    2
    13     7    22    1
    14     7    10    1
    15    25    26   am
    16    25    30   am
    17    27     3   am
    18    27     5    1
    19    22     5    1
    20    16    23    1
    21     3    33    2
    22    12    13    1
    23    12    11    1
    24     6     5    1
    25     6    28   am
    26    18    23    1
    27    13    29    1
    28    30    23    1
    29    23    17    1
    30     8    28    1
    31     8    24    1
    32     8     9    1
    33    35    24    1
    34    11     9    1
    35    11    14    1
    36    29    14   am
    37    14    31    2
