@<TRIPOS>MOLECULE
/home/pku/3cl/gett_pdb/7RW1/7RW1_mol2/ligand/7RW1_800.pdb
 37 39 0 0 0
SMALL
GASTEIGER

@<TRIPOS>ATOM
      1  C1        -3.2460  -27.0010    0.3270 C.2   401  800401      0.1322
      2  C10       -7.5130  -28.5830   -1.0100 C.3   401  800401      0.0023
      3  C11       -6.3050  -26.5750   -1.7790 C.3   401  800401      0.1730
      4  C12       -6.1360  -25.0640   -1.8290 C.2   401  800401      0.2616
      5  C13       -0.4880  -26.6720    3.8650 C.2   401  800401      0.0009
      6  C14       -5.3140  -23.2980   -3.3360 C.3   401  800401      0.1728
      7  C15       -6.6900  -23.1070   -3.8830 C.2   401  800401      0.2612
      8  C16       -1.1750  -25.8440    3.0000 C.2   401  800401      0.0153
      9  C17       -8.6320  -21.6110   -4.0090 C.3   401  800401      0.1287
     10  C19       -9.3770  -21.3910   -2.6980 C.3   401  800401      0.0339
     11  C20       -9.4530  -22.7330   -1.9840 C.3   401  800401      0.0861
     12  C21      -10.1310  -23.7250   -2.9140 C.3   401  800401      0.0534
     13  C22      -11.3050  -24.2870   -2.1230 C.2   401  800401      0.0627
     14  C24      -10.3040  -22.7390   -0.7380 C.2   401  800401      0.2453
     15  C3        -1.9280  -26.4270    2.0170 C.2   401  800401      0.0669
     16  C30       -7.6570  -27.0950   -1.3030 C.3   401  800401      0.0290
     17  C32       -8.7700  -26.8780   -2.3260 C.3   401  800401      0.0023
     18  C34       -4.3560  -23.1910   -4.5120 C.3   401  800401      0.0311
     19  C35       -3.1860  -22.2530   -4.2380 C.3   401  800401      0.0022
     20  C36       -2.1300  -22.3340   -5.3360 C.3   401  800401      0.0001
     21  C37       -2.5370  -22.5010   -2.8880 C.3   401  800401      0.0001
     22  C4        -1.9830  -27.8930    1.9210 C.3   401  800401      0.0857
     23  C5        -2.8380  -28.2550    0.8240 C.2   401  800401      0.0077
     24  C6        -1.2850  -28.6610    2.8660 C.2   401  800401     -0.0161
     25  C7        -0.4290  -28.0670    3.8530 C.2   401  800401     -0.0038
     26  C8        -8.7060  -20.3840   -4.9040 C.3   401  800401      0.2036
     27  C9        -4.1090  -26.7620   -0.8480 C.2   401  800401      0.2826
     28  N10       -5.3600  -27.1770   -0.8750 N.am  401  800401     -0.1927
     29  N13       -5.2210  -24.5990   -2.6980 N.am  401  800401     -0.1963
     30  N16       -7.2310  -21.8950   -3.7530 N.am  401  800401     -0.2030
     31  N2        -2.7050  -25.9680    1.0200 N.2   401  800401     -0.2447
     32  N23      -11.3280  -23.5730   -0.8580 N.am  401  800401     -0.1826
     33  O1       -10.0620  -19.9530   -5.0600 O.3   401  800401     -0.2185
     34  O26      -10.0560  -22.0900    0.2640 O.2   401  800401     -0.2730
     35  O29       -3.5940  -26.1710   -1.7920 O.2   401  800401     -0.2667
     36  O33       -6.7610  -24.3250   -1.0830 O.2   401  800401     -0.2715
     37  O38       -7.2470  -24.0480   -4.4220 O.2   401  800401     -0.2715
@<TRIPOS>BOND
     1    20    19    1
     2    33    26    1
     3    26     9    1
     4    18    19    1
     5    18     6    1
     6    37     7    2
     7    19    21    1
     8     9    30    1
     9     9    10    1
    10     7    30   am
    11     7     6    1
    12     6    29    1
    13    12    13    1
    14    12    11    1
    15    10    11    1
    16    29     4   am
    17    17    16    1
    18    13    32    2
    19    11    14    1
    20     4     3    1
    21     4    36    2
    22    35    27    2
    23     3    16    1
    24     3    28    1
    25    16     2    1
    26    28    27   am
    27    32    14    1
    28    27     1    1
    29    14    34    2
    30     1    23    2
    31     1    31    1
    32    23    22    1
    33    31    15    2
    34    22    15    1
    35    22    24    1
    36    15     8    1
    37    24    25    2
    38     8     5    2
    39    25     5    1
