RNC
  -OEChem-02242320043D

 32 34  0     0  0  0  0  0  0999 V2000
    5.2390    0.8460    0.0910 C   0  0  0  0  0  0  0  0  0  0  0  0
    3.2550    0.1080    0.2070 C   0  0  0  0  0  0  0  0  0  0  0  0
    1.5520   -1.7810    0.0010 C   0  0  0  0  0  0  0  0  0  0  0  0
    1.9620   -0.4790    0.7120 C   0  0  0  0  0  0  0  0  0  0  0  0
    0.7070    0.1460    0.0770 C   0  0  0  0  0  0  0  0  0  0  0  0
   -5.3870    2.9230    0.0920 C   0  0  0  0  0  0  0  0  0  0  0  0
   -4.4350    0.6490    0.0020 C   0  0  0  0  0  0  0  0  0  0  0  0
   -3.1540    1.2080    0.0530 C   0  0  0  0  0  0  0  0  0  0  0  0
   -2.2430   -0.8940   -0.0300 C   0  0  0  0  0  0  0  0  0  0  0  0
   -3.5190   -1.4520   -0.0920 C   0  0  0  0  0  0  0  0  0  0  0  0
   -1.0520   -1.7700   -0.0490 C   0  0  0  0  0  0  0  0  0  0  0  0
   -5.5500    1.4690    0.0190 N   0  0  0  0  0  0  0  0  0  0  0  0
   -2.0950    0.4290    0.0360 N   0  0  0  0  0  0  0  0  0  0  0  0
   -4.5820   -0.6690   -0.0700 N   0  0  0  0  0  0  0  0  0  0  0  0
    0.1820   -1.2310    0.0010 N   0  0  0  0  0  0  0  0  0  0  0  0
    3.4960    0.5020   -1.0080 N   0  0  0  0  0  0  0  0  0  0  0  0
    4.3650    0.3260    0.9310 N   0  0  0  0  0  0  0  0  0  0  0  0
   -1.1860   -2.9770   -0.1100 O   0  0  0  0  0  0  0  0  0  0  0  0
    4.6280    0.9260   -1.0990 O   0  0  0  0  0  0  0  0  0  0  0  0
    6.5020    1.2280    0.3760 O   0  0  0  0  0  0  0  0  0  0  0  0
    1.9810   -1.8910   -0.9950 H   0  0  0  0  0  0  0  0  0  0  0  0
    1.6670   -2.6730    0.6160 H   0  0  0  0  0  0  0  0  0  0  0  0
    1.9210   -0.5420    1.8000 H   0  0  0  0  0  0  0  0  0  0  0  0
    0.1480    0.7920    0.7530 H   0  0  0  0  0  0  0  0  0  0  0  0
    0.8880    0.6040   -0.8960 H   0  0  0  0  0  0  0  0  0  0  0  0
   -4.8540    3.1840    1.0060 H   0  0  0  0  0  0  0  0  0  0  0  0
   -4.8190    3.2690   -0.7720 H   0  0  0  0  0  0  0  0  0  0  0  0
   -6.3680    3.3990    0.0950 H   0  0  0  0  0  0  0  0  0  0  0  0
   -3.0350    2.2800    0.1070 H   0  0  0  0  0  0  0  0  0  0  0  0
   -3.6380   -2.5230   -0.1460 H   0  0  0  0  0  0  0  0  0  0  0  0
   -6.4380    1.0820   -0.0170 H   0  0  0  0  0  0  0  0  0  0  0  0
    7.1610    0.5290    0.2600 H   0  0  0  0  0  0  0  0  0  0  0  0
  3  4  1  0  0  0  0
  3 15  1  0  0  0  0
 11 18  2  0  0  0  0
 16 19  1  0  0  0  0
  2 16  2  0  0  0  0
  2  4  1  0  0  0  0
  4  5  1  0  0  0  0
  1 19  1  0  0  0  0
  2 17  1  0  0  0  0
 11 15  1  0  0  0  0
  5 15  1  0  0  0  0
  9 11  1  0  0  0  0
  1 17  2  0  0  0  0
  1 20  1  0  0  0  0
  9 10  2  0  0  0  0
 10 14  1  0  0  0  0
  9 13  1  0  0  0  0
  7 14  2  0  0  0  0
  8 13  2  0  0  0  0
  7  8  1  0  0  0  0
  7 12  1  0  0  0  0
  6 12  1  0  0  0  0
  3 21  1  0  0  0  0
  3 22  1  0  0  0  0
  4 23  1  0  0  0  0
  5 24  1  0  0  0  0
  5 25  1  0  0  0  0
  6 26  1  0  0  0  0
  6 27  1  0  0  0  0
  6 28  1  0  0  0  0
  8 29  1  0  0  0  0
 10 30  1  0  0  0  0
 12 31  1  0  0  0  0
 20 32  1  0  0  0  0
M  END
> <OPENEYE_ISO_SMILES>
CNc1cnc(cn1)C(=O)N2CC(C2)c3nc(on3)O

> <OPENEYE_INCHI>
InChI=1S/C11H12N6O3/c1-12-8-3-13-7(2-14-8)10(18)17-4-6(5-17)9-15-11(19)20-16-9/h2-3,6H,4-5H2,1H3,(H,12,14)(H,15,16,19)

> <OPENEYE_INCHIKEY>
YHUMVPIVKSGDRU-UHFFFAOYSA-N

> <FORMULA>
C11H12N6O3

$$$$
