7XT
  -OEChem-02242320013D

 82 83  0     1  0  0  0  0  0999 V2000
   -7.0560    4.3210   -1.1770 C   0  0  0  0  0  0  0  0  0  0  0  0
   -2.1690   -3.1400    0.0590 C   0  0  0  0  0  0  0  0  0  0  0  0
   -1.8260   -2.0920    1.1200 C   0  0  2  0  0  0  0  0  0  0  0  0
   -0.3290   -1.9340    1.2040 C   0  0  0  0  0  0  0  0  0  0  0  0
   -1.4330   -4.4440    0.3740 C   0  0  0  0  0  0  0  0  0  0  0  0
    1.7750   -1.0440    0.3590 C   0  0  2  0  0  0  0  0  0  0  0  0
    2.2260    0.1290   -0.4730 C   0  0  0  0  0  0  0  0  0  0  0  0
   -3.6780   -3.3920    0.0610 C   0  0  0  0  0  0  0  0  0  0  0  0
    3.9530    1.6600   -1.2540 C   0  0  1  0  0  0  0  0  0  0  0  0
    5.2000    2.2830   -0.6240 C   0  0  0  0  0  0  0  0  0  0  0  0
   -6.9280    3.2300   -2.0170 C   0  0  0  0  0  0  0  0  0  0  0  0
    4.8420    2.8710    0.7430 C   0  0  2  0  0  0  0  0  0  0  0  0
    6.0800    3.5350    1.3880 C   0  0  0  0  0  0  0  0  0  0  0  0
    6.6360    2.3860    2.2580 C   0  0  0  0  0  0  0  0  0  0  0  0
    2.7080   -1.3990   -2.5090 C   0  0  0  0  0  0  0  0  0  0  0  0
    4.4650    1.7700    1.7100 C   0  0  0  0  0  0  0  0  0  0  0  0
    4.2810    1.1830   -2.6710 C   0  0  0  0  0  0  0  0  0  0  0  0
   -6.5160    2.0120   -1.5090 C   0  0  0  0  0  0  0  0  0  0  0  0
   -2.3690   -2.5440    2.4770 C   0  0  0  0  0  0  0  0  0  0  0  0
    2.3610   -2.3340   -0.2180 C   0  0  0  0  0  0  0  0  0  0  0  0
    1.9670   -2.4580   -1.6910 C   0  0  0  0  0  0  0  0  0  0  0  0
    0.4580   -2.2500   -1.8350 C   0  0  0  0  0  0  0  0  0  0  0  0
    2.3400   -3.8510   -2.2030 C   0  0  0  0  0  0  0  0  0  0  0  0
   -6.2330    1.8840   -0.1620 C   0  0  0  0  0  0  0  0  0  0  0  0
   -6.3610    2.9750    0.6770 C   0  0  0  0  0  0  0  0  0  0  0  0
   -6.7670    4.1950    0.1690 C   0  0  0  0  0  0  0  0  0  0  0  0
   -5.7850    0.5560    0.3910 C   0  0  0  0  0  0  0  0  0  0  0  0
   -3.7720   -0.6640    0.7850 C   0  0  0  0  0  0  0  0  0  0  0  0
   -2.4320   -0.8100    0.7530 N   0  0  0  0  0  0  0  0  0  0  0  0
    0.3120   -1.1210    0.3420 N   0  0  0  0  0  0  0  0  0  0  0  0
    3.5150    0.5200   -0.4450 N   0  0  0  0  0  0  0  0  0  0  0  0
    5.4850    1.5230    2.5500 N   0  0  0  0  0  0  0  0  0  0  0  0
    3.3980    1.1940    1.7250 O   0  0  0  0  0  0  0  0  0  0  0  0
    5.4020    0.2970   -2.6280 O   0  0  0  0  0  0  0  0  0  0  0  0
   -4.4690   -1.5550    1.2270 O   0  0  0  0  0  0  0  0  0  0  0  0
    0.2970   -2.5390    2.0480 O   0  0  0  0  0  0  0  0  0  0  0  0
    1.4280    0.7210   -1.1690 O   0  0  0  0  0  0  0  0  0  0  0  0
   -4.3370    0.4680    0.3260 O   0  0  0  0  0  0  0  0  0  0  0  0
   -7.3770    5.2730   -1.5730 H   0  0  0  0  0  0  0  0  0  0  0  0
   -1.8630   -2.7780   -0.9220 H   0  0  0  0  0  0  0  0  0  0  0  0
   -1.7970   -4.8470    1.3190 H   0  0  0  0  0  0  0  0  0  0  0  0
   -1.6150   -5.1650   -0.4230 H   0  0  0  0  0  0  0  0  0  0  0  0
   -0.3640   -4.2490    0.4490 H   0  0  0  0  0  0  0  0  0  0  0  0
    2.1200   -0.9150    1.3850 H   0  0  0  0  0  0  0  0  0  0  0  0
   -4.1910   -2.5300   -0.3630 H   0  0  0  0  0  0  0  0  0  0  0  0
   -3.8990   -4.2770   -0.5370 H   0  0  0  0  0  0  0  0  0  0  0  0
   -4.0190   -3.5510    1.0840 H   0  0  0  0  0  0  0  0  0  0  0  0
    3.1570    2.4030   -1.2960 H   0  0  0  0  0  0  0  0  0  0  0  0
    5.9660    1.5180   -0.5010 H   0  0  0  0  0  0  0  0  0  0  0  0
    5.5780    3.0740   -1.2720 H   0  0  0  0  0  0  0  0  0  0  0  0
   -7.1500    3.3300   -3.0690 H   0  0  0  0  0  0  0  0  0  0  0  0
    4.0280    3.5890    0.6460 H   0  0  0  0  0  0  0  0  0  0  0  0
    6.8030    3.8340    0.6280 H   0  0  0  0  0  0  0  0  0  0  0  0
    5.7900    4.3860    2.0040 H   0  0  0  0  0  0  0  0  0  0  0  0
    7.3950    1.8300    1.7090 H   0  0  0  0  0  0  0  0  0  0  0  0
    3.7680   -1.4210   -2.2560 H   0  0  0  0  0  0  0  0  0  0  0  0
    2.5840   -1.6070   -3.5720 H   0  0  0  0  0  0  0  0  0  0  0  0
    2.3010   -0.4140   -2.2820 H   0  0  0  0  0  0  0  0  0  0  0  0
    3.4210    0.6600   -3.0870 H   0  0  0  0  0  0  0  0  0  0  0  0
    4.5220    2.0430   -3.2960 H   0  0  0  0  0  0  0  0  0  0  0  0
   -6.4170    1.1600   -2.1650 H   0  0  0  0  0  0  0  0  0  0  0  0
   -1.9180   -3.4980    2.7500 H   0  0  0  0  0  0  0  0  0  0  0  0
   -2.1240   -1.7970    3.2330 H   0  0  0  0  0  0  0  0  0  0  0  0
   -3.4510   -2.6580    2.4160 H   0  0  0  0  0  0  0  0  0  0  0  0
    3.4470   -2.3100   -0.1330 H   0  0  0  0  0  0  0  0  0  0  0  0
    1.9720   -3.1890    0.3350 H   0  0  0  0  0  0  0  0  0  0  0  0
    0.2290   -1.1870   -1.7550 H   0  0  0  0  0  0  0  0  0  0  0  0
    0.1310   -2.6200   -2.8070 H   0  0  0  0  0  0  0  0  0  0  0  0
   -0.0610   -2.7940   -1.0460 H   0  0  0  0  0  0  0  0  0  0  0  0
    1.8120   -4.6060   -1.6210 H   0  0  0  0  0  0  0  0  0  0  0  0
    2.0600   -3.9400   -3.2530 H   0  0  0  0  0  0  0  0  0  0  0  0
    3.4150   -4.0000   -2.1010 H   0  0  0  0  0  0  0  0  0  0  0  0
   -6.1390    2.8750    1.7300 H   0  0  0  0  0  0  0  0  0  0  0  0
   -6.8670    5.0470    0.8250 H   0  0  0  0  0  0  0  0  0  0  0  0
   -6.1080    0.4670    1.4280 H   0  0  0  0  0  0  0  0  0  0  0  0
   -6.2240   -0.2490   -0.1980 H   0  0  0  0  0  0  0  0  0  0  0  0
   -1.8690   -0.0650    0.4880 H   0  0  0  0  0  0  0  0  0  0  0  0
   -0.1940   -0.5870   -0.2890 H   0  0  0  0  0  0  0  0  0  0  0  0
    4.1530    0.0460    0.1110 H   0  0  0  0  0  0  0  0  0  0  0  0
    5.6660   -0.0440   -3.4930 H   0  0  0  0  0  0  0  0  0  0  0  0
    7.0540    2.7830    3.1840 H   0  0  0  0  0  0  0  0  0  0  0  0
    5.4630    0.8600    3.2570 H   0  0  0  0  0  0  0  0  0  0  0  0
  1 26  2  0  0  0  0
 25 26  1  0  0  0  0
  1 11  1  0  0  0  0
  3 19  1  0  0  0  0
 24 25  2  0  0  0  0
  2  5  1  0  0  0  0
  2  3  1  0  0  0  0
  2  8  1  0  0  0  0
 11 18  2  0  0  0  0
  7 37  2  0  0  0  0
  3 29  1  0  0  0  0
  3  4  1  0  0  0  0
  4 30  1  0  0  0  0
  6 30  1  0  0  0  0
 18 24  1  0  0  0  0
 24 27  1  0  0  0  0
 28 29  1  0  0  0  0
 21 22  1  0  0  0  0
  6 20  1  0  0  0  0
 20 21  1  0  0  0  0
 21 23  1  0  0  0  0
  4 36  2  0  0  0  0
 28 38  1  0  0  0  0
 28 35  2  0  0  0  0
  6  7  1  0  0  0  0
  7 31  1  0  0  0  0
 27 38  1  0  0  0  0
 15 21  1  0  0  0  0
 13 14  1  0  0  0  0
 12 13  1  0  0  0  0
 14 32  1  0  0  0  0
  9 31  1  0  0  0  0
  9 17  1  0  0  0  0
  9 10  1  0  0  0  0
 17 34  1  0  0  0  0
 10 12  1  0  0  0  0
 12 16  1  0  0  0  0
 16 32  1  0  0  0  0
 16 33  2  0  0  0  0
  1 39  1  0  0  0  0
  2 40  1  0  0  0  0
  5 41  1  0  0  0  0
  5 42  1  0  0  0  0
  5 43  1  0  0  0  0
  6 44  1  0  0  0  0
  8 45  1  0  0  0  0
  8 46  1  0  0  0  0
  8 47  1  0  0  0  0
  9 48  1  0  0  0  0
 10 49  1  0  0  0  0
 10 50  1  0  0  0  0
 11 51  1  0  0  0  0
 12 52  1  0  0  0  0
 13 53  1  0  0  0  0
 13 54  1  0  0  0  0
 14 55  1  0  0  0  0
 15 56  1  0  0  0  0
 15 57  1  0  0  0  0
 15 58  1  0  0  0  0
 17 59  1  0  0  0  0
 17 60  1  0  0  0  0
 18 61  1  0  0  0  0
 19 62  1  0  0  0  0
 19 63  1  0  0  0  0
 19 64  1  0  0  0  0
 20 65  1  0  0  0  0
 20 66  1  0  0  0  0
 22 67  1  0  0  0  0
 22 68  1  0  0  0  0
 22 69  1  0  0  0  0
 23 70  1  0  0  0  0
 23 71  1  0  0  0  0
 23 72  1  0  0  0  0
 25 73  1  0  0  0  0
 26 74  1  0  0  0  0
 27 75  1  0  0  0  0
 27 76  1  0  0  0  0
 29 77  1  0  0  0  0
 30 78  1  0  0  0  0
 31 79  1  0  0  0  0
 34 80  1  0  0  0  0
 14 81  1  0  0  0  0
 32 82  1  0  0  0  0
M  END
> <OPENEYE_ISO_SMILES>
CC(C)[C@@](C)(C(=O)N[C@@H](CC(C)(C)C)C(=O)N[C@@H](C[C@@H]1CCNC1=O)CO)NC(=O)OCc2ccccc2

> <OPENEYE_INCHI>
InChI=1S/C28H44N4O6/c1-18(2)28(6,32-26(37)38-17-19-10-8-7-9-11-19)25(36)31-22(15-27(3,4)5)24(35)30-21(16-33)14-20-12-13-29-23(20)34/h7-11,18,20-22,33H,12-17H2,1-6H3,(H,29,34)(H,30,35)(H,31,36)(H,32,37)/t20-,21-,22-,28-/m0/s1

> <OPENEYE_INCHIKEY>
OSUADHICZNMIND-STFWXSJUSA-N

> <FORMULA>
C28H44N4O6

$$$$
