@<TRIPOS>MOLECULE
/home/pku/3cl/gett_pdb/7E19/7E19_mol2/ligand/7E19_HUO.pdb
 45 48 0 0 0
SMALL
GASTEIGER

@<TRIPOS>ATOM
      1  C8        18.5900  -21.8740  -26.3810 C.3   401  HUO401      0.0326
      2  C5        18.0810  -19.9100  -28.6470 C.3   401  HUO401      0.1592
      3  C4        19.3300  -18.0930  -27.6450 C.2   401  HUO401      0.2616
      4  N3        17.0230  -22.3740  -24.6800 N.am  401  HUO401     -0.2054
      5  C2        19.3990  -17.0030  -24.8880 C.2   401  HUO401      0.2617
      6  N1        19.9810  -16.5170  -25.9710 N.am  401  HUO401     -0.1963
      7  C6        16.9800  -20.6190  -27.8400 C.3   401  HUO401      0.0388
      8  C1        20.1900  -16.7820  -23.6120 C.3   401  HUO401      0.1760
      9  C10       16.4710  -21.4670  -25.4980 C.2   401  HUO401      0.2410
     10  C11       17.9450  -20.0460  -30.1770 C.2   401  HUO401      0.2162
     11  C12       18.8980  -19.3600  -30.8110 C.ar  401  HUO401      0.1471
     12  C13       21.0200  -19.1190  -31.6190 C.ar  401  HUO401      0.0880
     13  C14       20.5470  -17.9040  -31.9460 C.ar  401  HUO401      0.0486
     14  C15       22.2810  -19.4460  -31.9270 C.ar  401  HUO401      0.0196
     15  C16       23.1320  -18.5600  -32.5770 C.ar  401  HUO401      0.0016
     16  C17       22.6360  -17.3090  -32.9030 C.ar  401  HUO401      0.0006
     17  C18       21.3180  -17.0120  -32.5690 C.ar  401  HUO401      0.0080
     18  C19       20.1100  -15.8020  -28.3020 C.3   401  HUO401      0.0311
     19  C20       20.0730  -14.3210  -27.9190 C.3   401  HUO401      0.0022
     20  C21       18.6270  -13.8260  -28.0040 C.3   401  HUO401      0.0001
     21  C22       20.8930  -13.5230  -28.9100 C.3   401  HUO401      0.0001
     22  C23       19.7800  -14.7880  -22.2480 C.2   401  HUO401      0.4218
     23  C24       20.3360  -18.0900  -22.8880 C.3   401  HUO401      0.0291
     24  C25       21.2250  -17.8500  -21.6530 C.3   401  HUO401      0.0023
     25  C26       20.9410  -19.1220  -23.8280 C.3   401  HUO401      0.0023
     26  C27       19.5890  -12.9650  -20.8590 C.3   401  HUO401      0.2368
     27  C28       20.5350  -13.3530  -19.7040 C.ar  401  HUO401      0.0213
     28  C29       21.9240  -13.3530  -19.9070 C.ar  401  HUO401     -0.0007
     29  C3        19.3320  -16.6210  -27.2640 C.3   401  HUO401      0.1728
     30  C30       22.7960  -13.6910  -18.8780 C.ar  401  HUO401     -0.0002
     31  C31       22.2510  -14.0300  -17.6370 C.ar  401  HUO401     -0.0000
     32  C32       20.8690  -14.0400  -17.4230 C.ar  401  HUO401     -0.0002
     33  C33       19.9990  -13.6950  -18.4640 C.ar  401  HUO401     -0.0007
     34  C7        17.5160  -20.8030  -26.3970 C.3   401  HUO401      0.0821
     35  C9        18.4840  -22.3780  -24.9340 C.3   401  HUO401      0.1156
     36  N2        18.2080  -18.5110  -28.2340 N.am  401  HUO401     -0.1978
     37  N4        20.1060  -19.8930  -30.9960 N.ar  401  HUO401     -0.2354
     38  N5        19.3730  -15.9520  -22.7510 N.am  401  HUO401     -0.1611
     39  O1        18.2930  -17.5550  -24.8790 O.2   401  HUO401     -0.2715
     40  O2        20.3160  -18.8050  -27.4420 O.2   401  HUO401     -0.2715
     41  O3        17.5230  -21.1070  -30.6400 O.2   401  HUO401     -0.2874
     42  O4        15.2770  -21.1950  -25.5280 O.2   401  HUO401     -0.2734
     43  O5        18.9410  -14.1100  -21.4280 O.3   401  HUO401     -0.4285
     44  O6        20.8940  -14.3430  -22.5170 O.2   401  HUO401     -0.2245
     45  S1        18.9270  -17.8210  -31.4150 S.2   401  HUO401     -0.0636
@<TRIPOS>BOND
     1    16    15   ar
     2    16    17   ar
     3    15    14   ar
     4    17    13   ar
     5    13    12   ar
     6    13    45   ar
     7    14    12   ar
     8    12    37   ar
     9    45    11   ar
    10    37    11   ar
    11    11    10    1
    12    41    10    2
    13    10     2    1
    14    21    19    1
    15     2    36    1
    16     2     7    1
    17    18    19    1
    18    18    29    1
    19    36     3   am
    20    20    19    1
    21     7    34    1
    22     3    40    2
    23     3    29    1
    24    29     6    1
    25    34     1    1
    26    34     9    1
    27     1    35    1
    28     6     5   am
    29    42     9    2
    30     9     4   am
    31    35     4    1
    32     5    39    2
    33     5     8    1
    34    25    23    1
    35     8    23    1
    36     8    38    1
    37    23    24    1
    38    38    22   am
    39    44    22    2
    40    22    43    1
    41    43    26    1
    42    26    27    1
    43    28    27   ar
    44    28    30   ar
    45    27    33   ar
    46    30    31   ar
    47    33    32   ar
    48    31    32   ar
