JGA
  -OEChem-02242320033D

 23 23  0     0  0  0  0  0  0999 V2000
    5.0170   -0.0120    0.0010 C   0  0  0  0  0  0  0  0  0  0  0  0
    3.6310   -0.6580   -0.0010 C   0  0  0  0  0  0  0  0  0  0  0  0
    2.6050    0.3870    0.0010 N   0  0  0  0  0  0  0  0  0  0  0  0
    1.3000    0.0510   -0.0000 C   0  0  0  0  0  0  0  0  0  0  0  0
    0.9740   -1.1200   -0.0030 O   0  0  0  0  0  0  0  0  0  0  0  0
    0.3560    1.0130    0.0010 N   0  0  0  0  0  0  0  0  0  0  0  0
   -0.9950    0.6650   -0.0000 C   0  0  0  0  0  0  0  0  0  0  0  0
   -1.5370   -0.6470    0.0030 C   0  0  0  0  0  0  0  0  0  0  0  0
   -2.8750   -0.4480    0.0000 C   0  0  0  0  0  0  0  0  0  0  0  0
   -3.0640    0.8800   -0.0040 O   0  0  0  0  0  0  0  0  0  0  0  0
   -2.0160    1.4820    0.0020 N   0  0  0  0  0  0  0  0  0  0  0  0
   -3.9440   -1.5100    0.0010 C   0  0  0  0  0  0  0  0  0  0  0  0
    5.1290    0.6050    0.8920 H   0  0  0  0  0  0  0  0  0  0  0  0
    5.7810   -0.7900   -0.0010 H   0  0  0  0  0  0  0  0  0  0  0  0
    5.1300    0.6090   -0.8880 H   0  0  0  0  0  0  0  0  0  0  0  0
    3.5190   -1.2760   -0.8920 H   0  0  0  0  0  0  0  0  0  0  0  0
    3.5180   -1.2790    0.8880 H   0  0  0  0  0  0  0  0  0  0  0  0
    2.8650    1.3220    0.0030 H   0  0  0  0  0  0  0  0  0  0  0  0
    0.6160    1.9480    0.0030 H   0  0  0  0  0  0  0  0  0  0  0  0
   -1.0050   -1.5870    0.0060 H   0  0  0  0  0  0  0  0  0  0  0  0
   -4.2030   -1.7630    1.0290 H   0  0  0  0  0  0  0  0  0  0  0  0
   -4.8280   -1.1360   -0.5150 H   0  0  0  0  0  0  0  0  0  0  0  0
   -3.5730   -2.3990   -0.5090 H   0  0  0  0  0  0  0  0  0  0  0  0
  2  3  1  0  0  0  0
  1  2  1  0  0  0  0
  3  4  1  0  0  0  0
  4  5  2  0  0  0  0
  4  6  1  0  0  0  0
  6  7  1  0  0  0  0
  7 11  2  0  0  0  0
  7  8  1  0  0  0  0
 10 11  1  0  0  0  0
  8  9  2  0  0  0  0
  9 10  1  0  0  0  0
  9 12  1  0  0  0  0
  1 13  1  0  0  0  0
  1 14  1  0  0  0  0
  1 15  1  0  0  0  0
  2 16  1  0  0  0  0
  2 17  1  0  0  0  0
  3 18  1  0  0  0  0
  6 19  1  0  0  0  0
  8 20  1  0  0  0  0
 12 21  1  0  0  0  0
 12 22  1  0  0  0  0
 12 23  1  0  0  0  0
M  END
> <OPENEYE_ISO_SMILES>
CCNC(=O)Nc1cc(on1)C

> <OPENEYE_INCHI>
InChI=1S/C7H11N3O2/c1-3-8-7(11)9-6-4-5(2)12-10-6/h4H,3H2,1-2H3,(H2,8,9,10,11)

> <OPENEYE_INCHIKEY>
OLTOJZGRSVNYRB-UHFFFAOYSA-N

> <FORMULA>
C7H11N3O2

$$$$
