@<TRIPOS>MOLECULE
/home/pku/3cl/gett_pdb/8CYA/8CYA_mol2/ligand/8CYA_NAG.pdb
 26 26 0 0 0
SMALL
GASTEIGER

@<TRIPOS>ATOM
      1  C1       238.6260  211.4650  291.6650 C.3     1  NAG1        0.1575
      2  C2       240.1120  211.5180  291.3120 C.3     1  NAG1        0.0863
      3  C3       240.7970  210.2210  291.7290 C.3     1  NAG1        0.1079
      4  C4       240.5300  209.9240  293.1990 C.3     1  NAG1        0.1494
      5  C5       239.0310  209.9530  293.4870 C.3     1  NAG1        0.1142
      6  C6       238.7100  209.8050  294.9560 C.3     1  NAG1        0.0731
      7  C7       241.3770  212.3690  289.3870 C.2     1  NAG1        0.2103
      8  C8       241.4020  212.5340  287.8980 C.3     1  NAG1        0.0122
      9  N2       240.2980  211.7590  289.8900 N.am    1  NAG1       -0.3071
     10  O3       242.1970  210.3310  291.5030 O.3     1  NAG1       -0.3871
     11  O4       241.0370  208.6360  293.5280 O.3     1  NAG1       -0.2256
     12  O5       238.4720  211.2070  293.0680 O.3     1  NAG1       -0.3571
     13  O6       237.5140  210.4920  295.2980 O.3     1  NAG1       -0.3924
     14  O7       242.2900  212.7690  290.1020 O.2     1  NAG1       -0.2761
     15  H2       240.5240  212.2490  291.8090 H       1  NAG1        0.0555
     16  H3       240.4450  209.4880  291.1890 H       1  NAG1        0.0641
     17  H4       240.9770  210.5960  293.7490 H       1  NAG1        0.0682
     18  H5       238.5990  209.2310  292.9930 H       1  NAG1        0.0647
     19  H61      239.4470  210.1700  295.4820 H       1  NAG1        0.0584
     20  H62      238.6050  208.8580  295.1670 H       1  NAG1        0.0584
     21  H81      242.2280  212.9820  287.6340 H       1  NAG1        0.0322
     22  H82      240.6370  213.0690  287.6160 H       1  NAG1        0.0322
     23  H83      241.3580  211.6560  287.4730 H       1  NAG1        0.0322
     24  HN2      239.6480  211.4810  289.3140 H       1  NAG1        0.1492
     25  HO3      242.4490  211.1760  291.6110 H       1  NAG1        0.2100
     26  HO6      237.6990  211.3450  295.4640 H       1  NAG1        0.2095
@<TRIPOS>BOND
     1    23     8    1
     2    22     8    1
     3    21     8    1
     4     8     7    1
     5    24     9    1
     6     7     9   am
     7     7    14    2
     8     9     2    1
     9    16     3    1
    10     2     1    1
    11     2     3    1
    12     2    15    1
    13    10    25    1
    14    10     3    1
    15     1    12    1
    16     3     4    1
    17    18     5    1
    18    12     5    1
    19     4     5    1
    20     4    11    1
    21     4    17    1
    22     5     6    1
    23     6    20    1
    24     6    13    1
    25     6    19    1
    26    13    26    1
