JFP
  -OEChem-02242320033D

 21 21  0     0  0  0  0  0  0999 V2000
    4.3660    0.1290   -0.0020 C   0  0  0  0  0  0  0  0  0  0  0  0
    3.2740   -0.9430    0.0010 C   0  0  0  0  0  0  0  0  0  0  0  0
    1.9200   -0.2810   -0.0010 C   0  0  0  0  0  0  0  0  0  0  0  0
    1.8370    0.9290   -0.0040 O   0  0  0  0  0  0  0  0  0  0  0  0
    0.8020   -1.0340    0.0020 N   0  0  0  0  0  0  0  0  0  0  0  0
   -0.4470   -0.4230    0.0000 C   0  0  0  0  0  0  0  0  0  0  0  0
   -1.5800   -1.0520    0.0020 N   0  0  0  0  0  0  0  0  0  0  0  0
   -2.6730   -0.3120    0.0010 C   0  0  0  0  0  0  0  0  0  0  0  0
   -2.4530    1.0040   -0.0030 C   0  0  0  0  0  0  0  0  0  0  0  0
   -0.7110    1.2660    0.0030 S   0  0  0  0  0  0  0  0  0  0  0  0
   -4.0580   -0.9060   -0.0030 C   0  0  0  0  0  0  0  0  0  0  0  0
    4.2650    0.7520    0.8860 H   0  0  0  0  0  0  0  0  0  0  0  0
    5.3450   -0.3500   -0.0010 H   0  0  0  0  0  0  0  0  0  0  0  0
    4.2650    0.7480   -0.8940 H   0  0  0  0  0  0  0  0  0  0  0  0
    3.3750   -1.5660   -0.8870 H   0  0  0  0  0  0  0  0  0  0  0  0
    3.3750   -1.5620    0.8920 H   0  0  0  0  0  0  0  0  0  0  0  0
    0.8690   -2.0020    0.0040 H   0  0  0  0  0  0  0  0  0  0  0  0
   -3.2100    1.7740   -0.0050 H   0  0  0  0  0  0  0  0  0  0  0  0
   -4.3880   -1.0530   -1.0320 H   0  0  0  0  0  0  0  0  0  0  0  0
   -4.0440   -1.8660    0.5140 H   0  0  0  0  0  0  0  0  0  0  0  0
   -4.7450   -0.2300    0.5060 H   0  0  0  0  0  0  0  0  0  0  0  0
  8 11  1  0  0  0  0
  8  9  2  0  0  0  0
  7  8  1  0  0  0  0
  9 10  1  0  0  0  0
  6  7  2  0  0  0  0
  6 10  1  0  0  0  0
  5  6  1  0  0  0  0
  3  5  1  0  0  0  0
  2  3  1  0  0  0  0
  3  4  2  0  0  0  0
  1  2  1  0  0  0  0
  1 12  1  0  0  0  0
  1 13  1  0  0  0  0
  1 14  1  0  0  0  0
  2 15  1  0  0  0  0
  2 16  1  0  0  0  0
  5 17  1  0  0  0  0
  9 18  1  0  0  0  0
 11 19  1  0  0  0  0
 11 20  1  0  0  0  0
 11 21  1  0  0  0  0
M  END
> <OPENEYE_ISO_SMILES>
CCC(=O)Nc1nc(cs1)C

> <OPENEYE_INCHI>
InChI=1S/C7H10N2OS/c1-3-6(10)9-7-8-5(2)4-11-7/h4H,3H2,1-2H3,(H,8,9,10)

> <OPENEYE_INCHIKEY>
AIOZNYOAFODHNA-UHFFFAOYSA-N

> <FORMULA>
C7H10N2OS

$$$$
