@<TRIPOS>MOLECULE
/home/pku/3cl/gett_pdb/5SQB/5SQB_mol2/ligand/5SQB_QO3.pdb
 47 50 0 0 0
SMALL
GASTEIGER

@<TRIPOS>ATOM
      1  C18      -49.2300  -29.1230    6.9730 C.ar  201  QO3201      0.1187
      2  C16      -49.4010  -29.1180    4.6780 C.ar  201  QO3201      0.0418
      3  C15      -48.0190  -29.1200    4.5270 C.ar  201  QO3201      0.0549
      4  C14      -47.3990  -29.1460    3.1090 C.2   201  QO3201      0.2460
      5  C12      -45.3520  -29.7350    1.6570 C.3   201  QO3201      0.0572
      6  C11      -45.1760  -28.3720    0.9540 C.ar  201  QO3201     -0.0199
      7  C10      -46.1100  -27.5810    0.2870 C.ar  201  QO3201     -0.0563
      8  C20      -51.3270  -29.2090    8.4160 C.3   201  QO3201      0.0133
      9  C02      -43.7500  -31.1980    2.9170 C.2   201  QO3201      0.0472
     10  C03      -43.9330  -30.2490    1.7220 C.3   201  QO3201      0.0252
     11  C04      -43.0250  -29.0280    1.8220 C.3   201  QO3201     -0.0140
     12  C05      -43.8330  -27.9420    1.0350 C.ar  201  QO3201     -0.0003
     13  C06      -43.4440  -26.7200    0.4470 C.ar  201  QO3201      0.1204
     14  C08      -44.3860  -25.9460   -0.2100 C.ar  201  QO3201     -0.0199
     15  C09      -45.7090  -26.3780   -0.2850 C.ar  201  QO3201     -0.0580
     16  C21      -51.8660  -30.6510    8.2290 C.3   201  QO3201     -0.0255
     17  C22      -53.2090  -30.9340    8.9020 C.3   201  QO3201     -0.0485
     18  C23      -51.9270  -31.5420    9.4740 C.3   201  QO3201     -0.0485
     19  C24      -47.8410  -29.1400    6.9120 C.ar  201  QO3201     -0.0212
     20  C25      -47.2190  -29.1430    5.6670 C.ar  201  QO3201     -0.0449
     21  N13      -46.0200  -29.6290    2.9640 N.am  201  QO3201     -0.3038
     22  N17      -49.9710  -29.1190    5.8750 N.ar  201  QO3201     -0.2398
     23  N19      -49.8620  -29.1350    8.2970 N.pl3 201  QO3201     -0.3288
     24  O01      -43.3050  -30.7590    4.0160 O.co2 201  QO3201     -0.5495
     25  O07      -42.1240  -26.2300    0.4770 O.3   201  QO3201     -0.5065
     26  O26      -48.0310  -28.8100    2.1620 O.2   201  QO3201     -0.2701
     27  O27      -44.0510  -32.4210    2.8100 O.co2 201  QO3201     -0.5495
     28 H161      -50.0320  -29.0990    3.7890 H     201  QO3201      0.0838
     29 H121      -45.9310  -30.4310    1.0140 H     201  QO3201      0.0555
     30 H101      -47.1470  -27.9060    0.2180 H     201  QO3201      0.0621
     31 H201      -51.7520  -28.5950    7.6290 H     201  QO3201      0.0464
     32 H202      -51.6320  -28.8120    9.3810 H     201  QO3201      0.0464
     33 H031      -43.7180  -30.7450    0.7660 H     201  QO3201      0.0385
     34 H041      -42.0630  -29.2350    1.3260 H     201  QO3201      0.0321
     35 H042      -42.8930  -28.7220    2.8640 H     201  QO3201      0.0321
     36 H081      -44.0800  -25.0010   -0.6580 H     201  QO3201      0.0654
     37 H091      -46.4310  -25.7650   -0.7950 H     201  QO3201      0.0619
     38 H211      -51.6910  -31.1710    7.2920 H     201  QO3201      0.0316
     39 H221      -53.8570  -31.6240    8.3750 H     201  QO3201      0.0269
     40 H222      -53.6290  -30.1130    9.4780 H     201  QO3201      0.0269
     41 H231      -51.7900  -32.6060    9.2920 H     201  QO3201      0.0269
     42 H232      -51.5630  -31.0920   10.3950 H     201  QO3201      0.0269
     43 H241      -47.2440  -29.1410    7.8240 H     201  QO3201      0.0652
     44 H251      -46.1340  -29.1530    5.5910 H     201  QO3201      0.0627
     45 H131      -45.5680  -29.9170    3.8140 H     201  QO3201      0.1496
     46 H191      -49.2800  -29.0660    9.1210 H     201  QO3201      0.1475
     47 H071      -41.8900  -25.9030   -0.3940 H     201  QO3201      0.2921
@<TRIPOS>UNITY_ATOM_ATTR
24 1
charge -1
@<TRIPOS>BOND
     1    37    15    1
     2    36    14    1
     3    47    25    1
     4    15    14   ar
     5    15     7   ar
     6    14    13   ar
     7    30     7    1
     8     7     6   ar
     9    13    25    1
    10    13    12   ar
    11    33    10    1
    12     6    12   ar
    13     6     5    1
    14    29     5    1
    15    12    11    1
    16    34    11    1
    17     5    10    1
    18     5    21    1
    19    10    11    1
    20    10     9    1
    21    11    35    1
    22    26     4    2
    23    27     9   ar
    24     9    24   ar
    25    21     4   am
    26    21    45    1
    27     4     3    1
    28    28     2    1
    29     3     2   ar
    30     3    20   ar
    31     2    22   ar
    32    44    20    1
    33    20    19   ar
    34    22     1   ar
    35    19     1   ar
    36    19    43    1
    37     1    23    1
    38    38    16    1
    39    31     8    1
    40    16     8    1
    41    16    17    1
    42    16    18    1
    43    23     8    1
    44    23    46    1
    45    39    17    1
    46     8    32    1
    47    17    18    1
    48    17    40    1
    49    41    18    1
    50    18    42    1
