T43
  -OEChem-02242320043D

 80 84  0     1  0  0  0  0  0999 V2000
   -4.9820    0.0960   -0.3290 N   0  0  0  0  0  0  0  0  0  0  0  0
   -6.2020   -0.1060   -0.8230 C   0  0  0  0  0  0  0  0  0  0  0  0
   -6.6640   -1.1650   -1.6460 C   0  0  0  0  0  0  0  0  0  0  0  0
   -5.8110   -2.1430   -2.0240 F   0  0  0  0  0  0  0  0  0  0  0  0
   -7.9610   -1.2030   -2.0580 C   0  0  0  0  0  0  0  0  0  0  0  0
   -8.8570   -0.2100   -1.6830 C   0  0  0  0  0  0  0  0  0  0  0  0
   -8.4410    0.8310   -0.8860 C   0  0  0  0  0  0  0  0  0  0  0  0
   -7.1160    0.8920   -0.4510 C   0  0  0  0  0  0  0  0  0  0  0  0
   -6.2740    2.0640    0.5590 S   0  0  0  0  0  0  0  0  0  0  0  0
   -4.7860    1.1400    0.4050 C   0  0  0  0  0  0  0  0  0  0  0  0
   -3.5020    1.5040    1.0230 C   0  0  0  0  0  0  0  0  0  0  0  0
   -3.3940    2.5520    1.6230 O   0  0  0  0  0  0  0  0  0  0  0  0
   -2.3210    0.5750    0.9090 C   0  0  2  0  0  0  0  0  0  0  0  0
   -2.3860   -0.4710    2.0230 C   0  0  0  0  0  0  0  0  0  0  0  0
   -3.5990   -1.3770    1.8020 C   0  0  2  0  0  0  0  0  0  0  0  0
   -3.7760   -2.3460    2.9940 C   0  0  0  0  0  0  0  0  0  0  0  0
   -4.2630   -3.6300    2.2870 C   0  0  0  0  0  0  0  0  0  0  0  0
   -3.7460   -3.5430    0.9160 N   0  0  0  0  0  0  0  0  0  0  0  0
   -3.3710   -2.2870    0.6150 C   0  0  0  0  0  0  0  0  0  0  0  0
   -2.9160   -1.9350   -0.4530 O   0  0  0  0  0  0  0  0  0  0  0  0
   -1.0810    1.3450    1.0340 N   0  0  0  0  0  0  0  0  0  0  0  0
    0.0440    0.9130    0.4310 C   0  0  0  0  0  0  0  0  0  0  0  0
   -0.0020   -0.3730   -0.5200 S   0  0  0  0  0  0  0  0  0  0  0  0
    1.3450    1.6410    0.6510 C   0  0  2  0  0  0  0  0  0  0  0  0
    1.2650    3.0710    0.0750 C   0  0  1  0  0  0  0  0  0  0  0  0
    2.5750    3.7860   -0.2640 C   0  0  0  0  0  0  0  0  0  0  0  0
    3.8650    3.2110    0.3240 C   0  0  0  0  0  0  0  0  0  0  0  0
    2.5330    5.3100   -0.3980 C   0  0  0  0  0  0  0  0  0  0  0  0
    1.8650    2.9640   -1.3420 C   0  0  1  0  0  0  0  0  0  0  0  0
    2.2550    1.4780   -1.4990 C   0  0  0  0  0  0  0  0  0  0  0  0
    2.4360    0.9910   -0.1120 N   0  0  0  0  0  0  0  0  0  0  0  0
    3.3810    0.1480    0.3520 C   0  0  0  0  0  0  0  0  0  0  0  0
    3.3490   -0.2220    1.5060 O   0  0  0  0  0  0  0  0  0  0  0  0
    4.4760   -0.3330   -0.5650 C   0  0  2  0  0  0  0  0  0  0  0  0
    4.0210   -1.6070   -1.2780 C   0  0  0  0  0  0  0  0  0  0  0  0
    3.5910   -2.6470   -0.2410 C   0  0  0  0  0  0  0  0  0  0  0  0
    2.8400   -1.2840   -2.1960 C   0  0  0  0  0  0  0  0  0  0  0  0
    5.1760   -2.1660   -2.1110 C   0  0  0  0  0  0  0  0  0  0  0  0
    5.6800   -0.6160    0.2210 N   0  0  0  0  0  0  0  0  0  0  0  0
    6.8930   -0.5670   -0.3650 C   0  0  0  0  0  0  0  0  0  0  0  0
    6.9880   -0.2890   -1.5410 O   0  0  0  0  0  0  0  0  0  0  0  0
    8.1320   -0.8590    0.4430 C   0  0  0  0  0  0  0  0  0  0  0  0
    8.0570   -2.1570    0.9590 F   0  0  0  0  0  0  0  0  0  0  0  0
    9.2600   -0.7460   -0.3760 F   0  0  0  0  0  0  0  0  0  0  0  0
    8.2270    0.0570    1.4970 F   0  0  0  0  0  0  0  0  0  0  0  0
   -8.2980   -2.0160   -2.6840 H   0  0  0  0  0  0  0  0  0  0  0  0
   -9.8830   -0.2550   -2.0180 H   0  0  0  0  0  0  0  0  0  0  0  0
   -9.1400    1.6010   -0.5960 H   0  0  0  0  0  0  0  0  0  0  0  0
   -2.3430    0.0760   -0.0600 H   0  0  0  0  0  0  0  0  0  0  0  0
   -1.4770   -1.0720    2.0110 H   0  0  0  0  0  0  0  0  0  0  0  0
   -2.4780    0.0290    2.9870 H   0  0  0  0  0  0  0  0  0  0  0  0
   -4.4990   -0.7800    1.6590 H   0  0  0  0  0  0  0  0  0  0  0  0
   -2.8270   -2.5160    3.5030 H   0  0  0  0  0  0  0  0  0  0  0  0
   -4.5280   -1.9740    3.6900 H   0  0  0  0  0  0  0  0  0  0  0  0
   -3.8610   -4.5110    2.7860 H   0  0  0  0  0  0  0  0  0  0  0  0
   -5.3520   -3.6660    2.2790 H   0  0  0  0  0  0  0  0  0  0  0  0
   -3.6820   -4.2940    0.3060 H   0  0  0  0  0  0  0  0  0  0  0  0
   -1.0690    2.1650    1.5510 H   0  0  0  0  0  0  0  0  0  0  0  0
    1.5880    1.6700    1.7130 H   0  0  0  0  0  0  0  0  0  0  0  0
    0.3760    3.6590    0.3030 H   0  0  0  0  0  0  0  0  0  0  0  0
    3.9970    2.1860   -0.0230 H   0  0  0  0  0  0  0  0  0  0  0  0
    4.7130    3.8160    0.0010 H   0  0  0  0  0  0  0  0  0  0  0  0
    3.8040    3.2220    1.4120 H   0  0  0  0  0  0  0  0  0  0  0  0
    2.2010    5.7470    0.5440 H   0  0  0  0  0  0  0  0  0  0  0  0
    3.5290    5.6810   -0.6400 H   0  0  0  0  0  0  0  0  0  0  0  0
    1.8390    5.5860   -1.1920 H   0  0  0  0  0  0  0  0  0  0  0  0
    1.4160    3.4710   -2.1960 H   0  0  0  0  0  0  0  0  0  0  0  0
    1.4560    0.9260   -1.9940 H   0  0  0  0  0  0  0  0  0  0  0  0
    3.1840    1.3860   -2.0610 H   0  0  0  0  0  0  0  0  0  0  0  0
    4.6970    0.4380   -1.3030 H   0  0  0  0  0  0  0  0  0  0  0  0
    2.7680   -2.2490    0.3520 H   0  0  0  0  0  0  0  0  0  0  0  0
    3.2660   -3.5550   -0.7490 H   0  0  0  0  0  0  0  0  0  0  0  0
    4.4320   -2.8770    0.4130 H   0  0  0  0  0  0  0  0  0  0  0  0
    3.1560   -0.5690   -2.9560 H   0  0  0  0  0  0  0  0  0  0  0  0
    2.4940   -2.1980   -2.6780 H   0  0  0  0  0  0  0  0  0  0  0  0
    2.0300   -0.8540   -1.6080 H   0  0  0  0  0  0  0  0  0  0  0  0
    6.0180   -2.3960   -1.4570 H   0  0  0  0  0  0  0  0  0  0  0  0
    4.8520   -3.0740   -2.6190 H   0  0  0  0  0  0  0  0  0  0  0  0
    5.4830   -1.4260   -2.8500 H   0  0  0  0  0  0  0  0  0  0  0  0
    5.6040   -0.8390    1.1620 H   0  0  0  0  0  0  0  0  0  0  0  0
 19 20  2  0  0  0  0
 18 19  1  0  0  0  0
 15 19  1  0  0  0  0
 17 18  1  0  0  0  0
 14 15  1  0  0  0  0
 13 14  1  0  0  0  0
 15 16  1  0  0  0  0
 11 12  2  0  0  0  0
 11 13  1  0  0  0  0
 10 11  1  0  0  0  0
 16 17  1  0  0  0  0
 13 21  1  0  0  0  0
 42 43  1  0  0  0  0
 21 22  1  0  0  0  0
 32 33  2  0  0  0  0
  9 10  1  0  0  0  0
  1 10  2  0  0  0  0
  8  9  1  0  0  0  0
 22 24  1  0  0  0  0
 22 23  2  0  0  0  0
 42 44  1  0  0  0  0
 42 45  1  0  0  0  0
 40 42  1  0  0  0  0
 35 38  1  0  0  0  0
 24 31  1  0  0  0  0
 24 25  1  0  0  0  0
 31 32  1  0  0  0  0
 32 34  1  0  0  0  0
 39 40  1  0  0  0  0
 34 39  1  0  0  0  0
  1  2  1  0  0  0  0
 26 27  1  0  0  0  0
 30 31  1  0  0  0  0
 40 41  2  0  0  0  0
 25 26  1  0  0  0  0
 25 29  1  0  0  0  0
 34 35  1  0  0  0  0
  2  8  2  0  0  0  0
  7  8  1  0  0  0  0
 26 28  1  0  0  0  0
 26 29  1  0  0  0  0
 35 37  1  0  0  0  0
 35 36  1  0  0  0  0
  2  3  1  0  0  0  0
  6  7  2  0  0  0  0
 29 30  1  0  0  0  0
  3  4  1  0  0  0  0
  3  5  2  0  0  0  0
  5  6  1  0  0  0  0
  5 46  1  0  0  0  0
  6 47  1  0  0  0  0
  7 48  1  0  0  0  0
 13 49  1  0  0  0  0
 14 50  1  0  0  0  0
 14 51  1  0  0  0  0
 15 52  1  0  0  0  0
 16 53  1  0  0  0  0
 16 54  1  0  0  0  0
 17 55  1  0  0  0  0
 17 56  1  0  0  0  0
 18 57  1  0  0  0  0
 21 58  1  0  0  0  0
 24 59  1  0  0  0  0
 25 60  1  0  0  0  0
 27 61  1  0  0  0  0
 27 62  1  0  0  0  0
 27 63  1  0  0  0  0
 28 64  1  0  0  0  0
 28 65  1  0  0  0  0
 28 66  1  0  0  0  0
 29 67  1  0  0  0  0
 30 68  1  0  0  0  0
 30 69  1  0  0  0  0
 34 70  1  0  0  0  0
 36 71  1  0  0  0  0
 36 72  1  0  0  0  0
 36 73  1  0  0  0  0
 37 74  1  0  0  0  0
 37 75  1  0  0  0  0
 37 76  1  0  0  0  0
 38 77  1  0  0  0  0
 38 78  1  0  0  0  0
 38 79  1  0  0  0  0
 39 80  1  0  0  0  0
M  END
> <OPENEYE_ISO_SMILES>
CC1([C@@H]2[C@H]1[C@H](N(C2)C(=O)[C@H](C(C)(C)C)NC(=O)C(F)(F)F)C(=S)N[C@@H](C[C@@H]3CCNC3=O)C(=O)c4nc5c(cccc5s4)F)C

> <OPENEYE_INCHI>
InChI=1S/C30H35F4N5O4S2/c1-28(2,3)22(38-27(43)30(32,33)34)26(42)39-12-14-18(29(14,4)5)20(39)24(44)36-16(11-13-9-10-35-23(13)41)21(40)25-37-19-15(31)7-6-8-17(19)45-25/h6-8,13-14,16,18,20,22H,9-12H2,1-5H3,(H,35,41)(H,36,44)(H,38,43)/t13-,14-,16-,18-,20-,22+/m0/s1

> <OPENEYE_INCHIKEY>
GDKLDALGJZVEKT-MCUUEWDYSA-N

> <FORMULA>
C30H35F4N5O4S2

$$$$
