VEM
  -OEChem-02242320043D

 60 61  0     1  0  0  0  0  0999 V2000
   -1.4900   -1.5300   -0.8440 N   0  0  0  0  0  0  0  0  0  0  0  0
   -1.3060   -0.4780   -1.6660 C   0  0  0  0  0  0  0  0  0  0  0  0
   -1.8640   -2.8340   -1.3950 C   0  0  0  0  0  0  0  0  0  0  0  0
   -2.0030   -3.8480   -0.2580 C   0  0  0  0  0  0  0  0  0  0  0  0
   -3.3070   -4.3560    1.6880 C   0  0  0  0  0  0  0  0  0  0  0  0
   -2.1680    1.6480   -0.7740 C   0  0  0  0  0  0  0  0  0  0  0  0
   -4.3690    3.1250   -0.1660 C   0  0  0  0  0  0  0  0  0  0  0  0
    1.2510    0.4960    0.0390 C   0  0  0  0  0  0  0  0  0  0  0  0
    3.1720   -0.3580   -1.1150 C   0  0  0  0  0  0  0  0  0  0  0  0
    3.4440    0.8220    0.9540 C   0  0  0  0  0  0  0  0  0  0  0  0
    6.0140    0.5930   -1.4780 C   0  0  0  0  0  0  0  0  0  0  0  0
    5.7960   -1.5560   -0.2230 C   0  0  0  0  0  0  0  0  0  0  0  0
    6.1500    0.5840    1.0170 C   0  0  0  0  0  0  0  0  0  0  0  0
   -1.4500   -0.6120   -2.8630 O   0  0  0  0  0  0  0  0  0  0  0  0
   -3.0910   -3.4700    0.5880 O   0  0  0  0  0  0  0  0  0  0  0  0
   -0.9220    0.8640   -1.0990 C   0  0  1  0  0  0  0  0  0  0  0  0
   -3.4210    1.0780   -0.9470 C   0  0  0  0  0  0  0  0  0  0  0  0
   -4.5390    1.8360   -0.6360 C   0  0  0  0  0  0  0  0  0  0  0  0
   -3.1620    3.6320   -0.0080 N   0  0  0  0  0  0  0  0  0  0  0  0
   -2.0760    2.9400   -0.2940 C   0  0  0  0  0  0  0  0  0  0  0  0
   -0.1350    0.6710    0.1210 N   0  0  0  0  0  0  0  0  0  0  0  0
   -0.7450    0.6620    1.3230 C   0  0  0  0  0  0  0  0  0  0  0  0
   -1.9560    0.6840    1.3880 O   0  0  0  0  0  0  0  0  0  0  0  0
    0.0770    0.6260    2.5850 C   0  0  0  0  0  0  0  0  0  0  0  0
   -0.7760    0.0870    3.7340 C   0  0  0  0  0  0  0  0  0  0  0  0
    2.0760    0.9960    1.0380 C   0  0  0  0  0  0  0  0  0  0  0  0
    3.9910    0.1410   -0.1180 C   0  0  0  0  0  0  0  0  0  0  0  0
    5.4820   -0.0590   -0.2000 C   0  0  0  0  0  0  0  0  0  0  0  0
    1.8040   -0.1820   -1.0390 C   0  0  0  0  0  0  0  0  0  0  0  0
   -1.3720   -1.4230    0.1130 H   0  0  0  0  0  0  0  0  0  0  0  0
   -2.8140   -2.7480   -1.9220 H   0  0  0  0  0  0  0  0  0  0  0  0
   -1.0930   -3.1700   -2.0890 H   0  0  0  0  0  0  0  0  0  0  0  0
   -2.1930   -4.8380   -0.6740 H   0  0  0  0  0  0  0  0  0  0  0  0
   -1.0810   -3.8700    0.3240 H   0  0  0  0  0  0  0  0  0  0  0  0
   -4.1490   -3.9990    2.2810 H   0  0  0  0  0  0  0  0  0  0  0  0
   -3.5240   -5.3550    1.3120 H   0  0  0  0  0  0  0  0  0  0  0  0
   -2.4120   -4.3880    2.3100 H   0  0  0  0  0  0  0  0  0  0  0  0
   -5.2350    3.7220    0.0800 H   0  0  0  0  0  0  0  0  0  0  0  0
    3.6020   -0.8900   -1.9500 H   0  0  0  0  0  0  0  0  0  0  0  0
    4.0860    1.2110    1.7300 H   0  0  0  0  0  0  0  0  0  0  0  0
    5.7910    1.6600   -1.4620 H   0  0  0  0  0  0  0  0  0  0  0  0
    7.0930    0.4490   -1.5370 H   0  0  0  0  0  0  0  0  0  0  0  0
    5.5380    0.1350   -2.3450 H   0  0  0  0  0  0  0  0  0  0  0  0
    6.8750   -1.7000   -0.2820 H   0  0  0  0  0  0  0  0  0  0  0  0
    5.4170   -2.0200    0.6880 H   0  0  0  0  0  0  0  0  0  0  0  0
    5.3200   -2.0140   -1.0900 H   0  0  0  0  0  0  0  0  0  0  0  0
    5.9270    1.6510    1.0330 H   0  0  0  0  0  0  0  0  0  0  0  0
    5.7710    0.1200    1.9270 H   0  0  0  0  0  0  0  0  0  0  0  0
    7.2290    0.4400    0.9570 H   0  0  0  0  0  0  0  0  0  0  0  0
   -0.3290    1.4120   -1.8320 H   0  0  0  0  0  0  0  0  0  0  0  0
   -3.5230    0.0680   -1.3170 H   0  0  0  0  0  0  0  0  0  0  0  0
   -5.5300    1.4250   -0.7580 H   0  0  0  0  0  0  0  0  0  0  0  0
   -1.1050    3.3890   -0.1520 H   0  0  0  0  0  0  0  0  0  0  0  0
    0.9400   -0.0240    2.4380 H   0  0  0  0  0  0  0  0  0  0  0  0
    0.4180    1.6330    2.8260 H   0  0  0  0  0  0  0  0  0  0  0  0
   -1.6390    0.7360    3.8820 H   0  0  0  0  0  0  0  0  0  0  0  0
   -1.1170   -0.9200    3.4930 H   0  0  0  0  0  0  0  0  0  0  0  0
   -0.1820    0.0600    4.6480 H   0  0  0  0  0  0  0  0  0  0  0  0
    1.6490    1.5210    1.8800 H   0  0  0  0  0  0  0  0  0  0  0  0
    1.1650   -0.5720   -1.8180 H   0  0  0  0  0  0  0  0  0  0  0  0
  7 19  2  0  0  0  0
  7 18  1  0  0  0  0
 19 20  1  0  0  0  0
 17 18  2  0  0  0  0
  6 20  2  0  0  0  0
  6 17  1  0  0  0  0
 24 25  1  0  0  0  0
  6 16  1  0  0  0  0
  2 14  2  0  0  0  0
 22 23  2  0  0  0  0
 22 24  1  0  0  0  0
 21 22  1  0  0  0  0
 16 21  1  0  0  0  0
  2 16  1  0  0  0  0
  9 29  2  0  0  0  0
  8 29  1  0  0  0  0
  8 21  1  0  0  0  0
  1  2  1  0  0  0  0
  5 15  1  0  0  0  0
  9 27  1  0  0  0  0
  8 26  2  0  0  0  0
  4 15  1  0  0  0  0
  3  4  1  0  0  0  0
  1  3  1  0  0  0  0
 11 28  1  0  0  0  0
 10 27  2  0  0  0  0
 27 28  1  0  0  0  0
 10 26  1  0  0  0  0
 13 28  1  0  0  0  0
 12 28  1  0  0  0  0
  1 30  1  0  0  0  0
  3 31  1  0  0  0  0
  3 32  1  0  0  0  0
  4 33  1  0  0  0  0
  4 34  1  0  0  0  0
  5 35  1  0  0  0  0
  5 36  1  0  0  0  0
  5 37  1  0  0  0  0
  7 38  1  0  0  0  0
  9 39  1  0  0  0  0
 10 40  1  0  0  0  0
 11 41  1  0  0  0  0
 11 42  1  0  0  0  0
 11 43  1  0  0  0  0
 12 44  1  0  0  0  0
 12 45  1  0  0  0  0
 12 46  1  0  0  0  0
 13 47  1  0  0  0  0
 13 48  1  0  0  0  0
 13 49  1  0  0  0  0
 16 50  1  0  0  0  0
 17 51  1  0  0  0  0
 18 52  1  0  0  0  0
 20 53  1  0  0  0  0
 24 54  1  0  0  0  0
 24 55  1  0  0  0  0
 25 56  1  0  0  0  0
 25 57  1  0  0  0  0
 25 58  1  0  0  0  0
 26 59  1  0  0  0  0
 29 60  1  0  0  0  0
M  END
> <OPENEYE_ISO_SMILES>
CCC(=O)N(c1ccc(cc1)C(C)(C)C)[C@H](c2cccnc2)C(=O)NCCOC

> <OPENEYE_INCHI>
InChI=1S/C23H31N3O3/c1-6-20(27)26(19-11-9-18(10-12-19)23(2,3)4)21(17-8-7-13-24-16-17)22(28)25-14-15-29-5/h7-13,16,21H,6,14-15H2,1-5H3,(H,25,28)/t21-/m1/s1

> <OPENEYE_INCHIKEY>
VGALAKWGAVFSCK-OAQYLSRUSA-N

> <FORMULA>
C23H31N3O3

$$$$
