BLA
  -OEChem-02242320023D

 77 80  0     0  0  0  0  0  0999 V2000
   -0.1840   -0.6030   -2.3370 C   0  0  0  0  0  0  0  0  0  0  0  0
    1.3060   -0.3750   -0.3760 N   0  0  0  0  0  0  0  0  0  0  0  0
    1.0610   -0.6430   -1.7060 C   0  0  0  0  0  0  0  0  0  0  0  0
    2.2820   -0.9560   -2.3150 C   0  0  0  0  0  0  0  0  0  0  0  0
    3.2620   -0.8850   -1.3460 C   0  0  0  0  0  0  0  0  0  0  0  0
    2.6490   -0.5200   -0.1460 C   0  0  0  0  0  0  0  0  0  0  0  0
    4.7320   -1.1480   -1.5480 C   0  0  0  0  0  0  0  0  0  0  0  0
    2.4870   -1.3150   -3.7640 C   0  0  0  0  0  0  0  0  0  0  0  0
    2.7550   -0.0430   -4.5720 C   0  0  0  0  0  0  0  0  0  0  0  0
    2.9610   -0.4020   -6.0210 C   0  0  0  0  0  0  0  0  0  0  0  0
    2.9000   -1.5570   -6.3720 O   0  0  0  0  0  0  0  0  0  0  0  0
    3.2120    0.5600   -6.9220 O   0  0  0  0  0  0  0  0  0  0  0  0
    3.3000   -0.3340    1.0900 C   0  0  0  0  0  0  0  0  0  0  0  0
    1.6460    1.3220    1.8500 N   0  0  0  0  0  0  0  0  0  0  0  0
    2.7510    0.5040    2.0400 C   0  0  0  0  0  0  0  0  0  0  0  0
    3.2190    0.6630    3.3590 C   0  0  0  0  0  0  0  0  0  0  0  0
    2.4030    1.5890    3.9800 C   0  0  0  0  0  0  0  0  0  0  0  0
    1.3940    1.9970    2.9880 C   0  0  0  0  0  0  0  0  0  0  0  0
    4.3990   -0.0410    3.9780 C   0  0  0  0  0  0  0  0  0  0  0  0
    0.4960    2.7980    3.1640 O   0  0  0  0  0  0  0  0  0  0  0  0
    2.5170    2.0710    5.3670 C   0  0  0  0  0  0  0  0  0  0  0  0
    1.5930    2.8890    5.8650 C   0  0  0  0  0  0  0  0  0  0  0  0
   -0.9680   -1.0100    2.4320 N   0  0  0  0  0  0  0  0  0  0  0  0
   -0.4700   -1.2620    3.6540 C   0  0  0  0  0  0  0  0  0  0  0  0
   -1.4760   -1.1320    4.6220 C   0  0  0  0  0  0  0  0  0  0  0  0
   -2.6500   -0.7790    3.9750 C   0  0  0  0  0  0  0  0  0  0  0  0
   -2.3200   -0.7060    2.5450 C   0  0  0  0  0  0  0  0  0  0  0  0
   -1.3100   -1.3340    6.1060 C   0  0  0  0  0  0  0  0  0  0  0  0
    0.6890   -1.5590    3.8880 O   0  0  0  0  0  0  0  0  0  0  0  0
   -3.9640   -0.5360    4.5940 C   0  0  0  0  0  0  0  0  0  0  0  0
   -4.5210   -1.4690    5.3600 C   0  0  0  0  0  0  0  0  0  0  0  0
   -3.1720   -0.3940    1.5260 C   0  0  0  0  0  0  0  0  0  0  0  0
   -1.4270   -0.5400   -0.2350 N   0  0  0  0  0  0  0  0  0  0  0  0
   -2.6920   -0.3900    0.1460 C   0  0  0  0  0  0  0  0  0  0  0  0
   -3.4950   -0.2260   -1.0080 C   0  0  0  0  0  0  0  0  0  0  0  0
   -2.6620   -0.2780   -2.0790 C   0  0  0  0  0  0  0  0  0  0  0  0
   -1.3540   -0.4840   -1.5710 C   0  0  0  0  0  0  0  0  0  0  0  0
   -4.9880   -0.0250   -1.0410 C   0  0  0  0  0  0  0  0  0  0  0  0
   -3.0540   -0.1520   -3.5290 C   0  0  0  0  0  0  0  0  0  0  0  0
   -3.0010    1.3190   -3.9450 C   0  0  0  0  0  0  0  0  0  0  0  0
   -3.3930    1.4450   -5.3950 C   0  0  0  0  0  0  0  0  0  0  0  0
   -3.6840    0.4590   -6.0300 O   0  0  0  0  0  0  0  0  0  0  0  0
   -3.4180    2.6530   -5.9810 O   0  0  0  0  0  0  0  0  0  0  0  0
   -0.2470   -0.6630   -3.4130 H   0  0  0  0  0  0  0  0  0  0  0  0
    0.6400   -0.1260    0.2830 H   0  0  0  0  0  0  0  0  0  0  0  0
    4.9400   -2.2030   -1.3710 H   0  0  0  0  0  0  0  0  0  0  0  0
    5.0100   -0.8890   -2.5700 H   0  0  0  0  0  0  0  0  0  0  0  0
    5.3090   -0.5410   -0.8500 H   0  0  0  0  0  0  0  0  0  0  0  0
    3.3400   -1.9880   -3.8540 H   0  0  0  0  0  0  0  0  0  0  0  0
    1.5930   -1.8070   -4.1470 H   0  0  0  0  0  0  0  0  0  0  0  0
    1.9030    0.6300   -4.4820 H   0  0  0  0  0  0  0  0  0  0  0  0
    3.6490    0.4480   -4.1890 H   0  0  0  0  0  0  0  0  0  0  0  0
    3.3440    0.3300   -7.8520 H   0  0  0  0  0  0  0  0  0  0  0  0
    4.2280   -0.8470    1.2950 H   0  0  0  0  0  0  0  0  0  0  0  0
    1.1360    1.3950    1.0280 H   0  0  0  0  0  0  0  0  0  0  0  0
    4.5210    0.2910    5.0080 H   0  0  0  0  0  0  0  0  0  0  0  0
    4.2290   -1.1170    3.9610 H   0  0  0  0  0  0  0  0  0  0  0  0
    5.3000    0.1930    3.4110 H   0  0  0  0  0  0  0  0  0  0  0  0
    3.3500    1.7600    5.9800 H   0  0  0  0  0  0  0  0  0  0  0  0
    1.7230    3.3150    6.8490 H   0  0  0  0  0  0  0  0  0  0  0  0
    0.7140    3.1280    5.2850 H   0  0  0  0  0  0  0  0  0  0  0  0
   -0.4650   -1.0380    1.6030 H   0  0  0  0  0  0  0  0  0  0  0  0
   -0.2580   -1.5110    6.3320 H   0  0  0  0  0  0  0  0  0  0  0  0
   -1.6500   -0.4430    6.6340 H   0  0  0  0  0  0  0  0  0  0  0  0
   -1.9000   -2.1930    6.4240 H   0  0  0  0  0  0  0  0  0  0  0  0
   -4.4760    0.3990    4.4260 H   0  0  0  0  0  0  0  0  0  0  0  0
   -5.5170   -1.3230    5.7520 H   0  0  0  0  0  0  0  0  0  0  0  0
   -3.9780   -2.3740    5.5900 H   0  0  0  0  0  0  0  0  0  0  0  0
   -4.2020   -0.1490    1.7400 H   0  0  0  0  0  0  0  0  0  0  0  0
   -5.3770   -0.0230   -0.0230 H   0  0  0  0  0  0  0  0  0  0  0  0
   -5.2170    0.9270   -1.5190 H   0  0  0  0  0  0  0  0  0  0  0  0
   -5.4510   -0.8340   -1.6050 H   0  0  0  0  0  0  0  0  0  0  0  0
   -2.3630   -0.7280   -4.1440 H   0  0  0  0  0  0  0  0  0  0  0  0
   -4.0660   -0.5320   -3.6670 H   0  0  0  0  0  0  0  0  0  0  0  0
   -3.6920    1.8950   -3.3310 H   0  0  0  0  0  0  0  0  0  0  0  0
   -1.9890    1.6990   -3.8080 H   0  0  0  0  0  0  0  0  0  0  0  0
   -3.6690    2.7340   -6.9110 H   0  0  0  0  0  0  0  0  0  0  0  0
  1  3  1  0  0  0  0
  1 37  2  0  0  0  0
  1 44  1  0  0  0  0
  2  3  1  0  0  0  0
  2  6  1  0  0  0  0
  2 45  1  0  0  0  0
  3  4  2  0  0  0  0
  4  5  1  0  0  0  0
  4  8  1  0  0  0  0
  5  6  2  0  0  0  0
  5  7  1  0  0  0  0
  6 13  1  0  0  0  0
  7 46  1  0  0  0  0
  7 47  1  0  0  0  0
  7 48  1  0  0  0  0
  8  9  1  0  0  0  0
  8 49  1  0  0  0  0
  8 50  1  0  0  0  0
  9 10  1  0  0  0  0
  9 51  1  0  0  0  0
  9 52  1  0  0  0  0
 10 11  2  0  0  0  0
 10 12  1  0  0  0  0
 12 53  1  0  0  0  0
 13 15  2  0  0  0  0
 13 54  1  0  0  0  0
 14 15  1  0  0  0  0
 14 18  1  0  0  0  0
 14 55  1  0  0  0  0
 15 16  1  0  0  0  0
 16 17  2  0  0  0  0
 16 19  1  0  0  0  0
 17 18  1  0  0  0  0
 17 21  1  0  0  0  0
 18 20  2  0  0  0  0
 19 56  1  0  0  0  0
 19 57  1  0  0  0  0
 19 58  1  0  0  0  0
 21 22  2  0  0  0  0
 21 59  1  0  0  0  0
 22 60  1  0  0  0  0
 22 61  1  0  0  0  0
 23 24  1  0  0  0  0
 23 27  1  0  0  0  0
 23 62  1  0  0  0  0
 24 25  1  0  0  0  0
 24 29  2  0  0  0  0
 25 26  2  0  0  0  0
 25 28  1  0  0  0  0
 26 27  1  0  0  0  0
 26 30  1  0  0  0  0
 27 32  2  0  0  0  0
 28 63  1  0  0  0  0
 28 64  1  0  0  0  0
 28 65  1  0  0  0  0
 30 31  2  0  0  0  0
 30 66  1  0  0  0  0
 31 67  1  0  0  0  0
 31 68  1  0  0  0  0
 32 34  1  0  0  0  0
 32 69  1  0  0  0  0
 33 34  2  0  0  0  0
 33 37  1  0  0  0  0
 34 35  1  0  0  0  0
 35 36  2  0  0  0  0
 35 38  1  0  0  0  0
 36 37  1  0  0  0  0
 36 39  1  0  0  0  0
 38 70  1  0  0  0  0
 38 71  1  0  0  0  0
 38 72  1  0  0  0  0
 39 40  1  0  0  0  0
 39 73  1  0  0  0  0
 39 74  1  0  0  0  0
 40 41  1  0  0  0  0
 40 75  1  0  0  0  0
 40 76  1  0  0  0  0
 41 42  2  0  0  0  0
 41 43  1  0  0  0  0
 43 77  1  0  0  0  0
M  END
> <OPENEYE_ISO_SMILES>
Cc1c(c([nH]c1/C=C\2/C(=C(C(=O)N2)C=C)C)/C=C\3/C(=C(C(=N3)/C=C\4/C(=C(C(=O)N4)C)C=C)C)CCC(=O)O)CCC(=O)O

> <OPENEYE_INCHI>
InChI=1S/C33H34N4O6/c1-7-20-19(6)32(42)37-27(20)14-25-18(5)23(10-12-31(40)41)29(35-25)15-28-22(9-11-30(38)39)17(4)24(34-28)13-26-16(3)21(8-2)33(43)36-26/h7-8,13-15,34H,1-2,9-12H2,3-6H3,(H,36,43)(H,37,42)(H,38,39)(H,40,41)/b26-13-,27-14-,29-15-

> <OPENEYE_INCHIKEY>
GWZYPXHJIZCRAJ-SRVCBVSDSA-N

> <FORMULA>
C33H34N4O6

$$$$
