@<TRIPOS>MOLECULE
/home/pku/3cl/gett_pdb/7RFU/7RFU_mol2/ligand/7RFU_4YG.pdb
 79 83 0 0 0
SMALL
GASTEIGER

@<TRIPOS>ATOM
      1  C22        7.8380   -5.2950   25.7480 C.ar  401  4YG401     -0.0597
      2  C23        9.1070   -5.8160   25.5140 C.ar  401  4YG401     -0.0606
      3  C21        7.1410   -4.6190   24.7350 C.ar  401  4YG401     -0.0352
      4  C24        9.7050   -5.6740   24.2580 C.ar  401  4YG401     -0.0459
      5  C20        7.7200   -4.4660   23.4510 C.ar  401  4YG401      0.0786
      6  C25        8.9980   -4.9980   23.2470 C.ar  401  4YG401      0.0393
      7  C19        7.9800   -3.8520   21.3170 C.ar  401  4YG401      0.1162
      8  C17        6.2950    1.2280   18.0540 C.2   401  4YG401      0.2162
      9  C11        8.9970   -0.4620   21.7220 C.2   401  4YG401      0.2342
     10  C6        10.2550    2.2950   22.3090 C.2   401  4YG401      0.2351
     11  C15        5.7840    0.8700   20.3370 C.3   401  4YG401     -0.0262
     12  C16        5.2690    2.2200   19.8850 C.3   401  4YG401      0.0123
     13  C7        11.0630    0.6880   24.1280 C.3   401  4YG401      0.0192
     14  C14        6.8310    0.5160   19.2780 C.3   401  4YG401      0.0387
     15  C10       10.4420   -0.1340   21.9250 C.3   401  4YG401      0.1058
     16  C8        11.5500   -0.7150   23.9910 C.3   401  4YG401     -0.0142
     17  C9        11.1720   -1.2260   22.6430 C.3   401  4YG401     -0.0037
     18  C26       12.6360   -1.2210   23.0540 C.3   401  4YG401     -0.0250
     19  C27       13.5600   -0.2240   22.4490 C.3   401  4YG401     -0.0592
     20  C28       13.2450   -2.5290   23.3890 C.3   401  4YG401     -0.0592
     21  C1         8.7200    4.9940   24.4220 C.3   401  4YG401     -0.0607
     22  C3         7.7330    3.7130   22.6110 C.3   401  4YG401     -0.0607
     23  C5        12.8980    4.6250   20.9510 C.3   401  4YG401      0.0705
     24  C13        6.9260   -0.9760   19.0080 C.3   401  4YG401     -0.0202
     25  C18        7.6980   -3.2300   19.9820 C.3   401  4YG401      0.1682
     26  C4        10.1860    3.4520   23.2690 C.3   401  4YG401      0.1069
     27  C2         8.7540    3.6680   23.7260 C.3   401  4YG401     -0.0212
     28  C12        7.4930   -1.7310   20.2050 C.3   401  4YG401      0.0619
     29  N5         7.1610   -3.8210   22.3520 N.ar  401  4YG401     -0.2409
     30  N4         5.2520    2.0540   18.4630 N.am  401  4YG401     -0.3151
     31  N2        10.4370    1.0240   22.8340 N.am  401  4YG401     -0.2880
     32  N3         8.7880   -1.2010   20.5780 N.am  401  4YG401     -0.3076
     33  N1        10.6950    4.6240   22.5000 N.3   401  4YG401     -0.1826
     34  O5         6.7470    1.1140   16.9290 O.2   401  4YG401     -0.2755
     35  O4         8.1450   -0.0940   22.5180 O.2   401  4YG401     -0.2738
     36  O3        10.1100    2.5060   21.1150 O.2   401  4YG401     -0.2738
     37  O1        13.0750    4.1390   23.4750 O.2   401  4YG401     -0.1585
     38  O2        12.5350    6.4840   22.6960 O.2   401  4YG401     -0.1585
     39  O6         6.5170   -3.8230   19.4410 O.3   401  4YG401     -0.3767
     40  S2         9.4610   -4.6820   21.6190 S.2   401  4YG401     -0.0691
     41  S1        12.3710    5.0470   22.5860 S.O2  401  4YG401      0.0272
     42  H29        7.3850   -5.4080   26.7250 H     401  4YG401      0.0618
     43  H30        9.6300   -6.3390   26.3060 H     401  4YG401      0.0618
     44  H28        6.1560   -4.2190   24.9420 H     401  4YG401      0.0639
     45  H31       10.6910   -6.0840   24.0730 H     401  4YG401      0.0629
     46  H23        6.2380    0.9380   21.3290 H     401  4YG401      0.0288
     47  H24        4.9780    0.1330   20.3580 H     401  4YG401      0.0288
     48  H25        4.2570    2.4250   20.2430 H     401  4YG401      0.0462
     49  H26        5.9490    3.0360   20.1460 H     401  4YG401      0.0462
     50  H13       10.3220    0.7880   24.9260 H     401  4YG401      0.0468
     51  H14       11.9140    1.3470   24.3060 H     401  4YG401      0.0468
     52  H22        7.8020    0.9500   19.5250 H     401  4YG401      0.0395
     53  H17       10.9260    0.1290   20.9800 H     401  4YG401      0.0600
     54  H15       11.1320   -1.3280   24.7890 H     401  4YG401      0.0325
     55  H16       10.6540   -2.1750   22.5840 H     401  4YG401      0.0332
     56  H32       14.0330   -0.6450   21.5570 H     401  4YG401      0.0235
     57  H33       14.3460    0.0340   23.1630 H     401  4YG401      0.0235
     58  H34       13.0410    0.6930   22.1610 H     401  4YG401      0.0235
     59  H35       13.7210   -2.9670   22.5080 H     401  4YG401      0.0235
     60  H36       12.4740   -3.2160   23.7490 H     401  4YG401      0.0235
     61  H37       13.9970   -2.4060   24.1720 H     401  4YG401      0.0235
     62  H3         7.9040    5.0160   25.1500 H     401  4YG401      0.0233
     63  H1         8.5610    5.8000   23.7010 H     401  4YG401      0.0233
     64  H2         9.6580    5.1780   24.9530 H     401  4YG401      0.0233
     65  H6         7.3990    2.7030   22.3570 H     401  4YG401      0.0233
     66  H5         8.1440    4.1820   21.7130 H     401  4YG401      0.0233
     67  H7         6.8610    4.2890   22.9290 H     401  4YG401      0.0233
     68  H12       12.2300    5.1080   20.2340 H     401  4YG401      0.0479
     69  H11       12.8500    3.5380   20.8470 H     401  4YG401      0.0479
     70  H10       13.9240    4.9770   20.8180 H     401  4YG401      0.0479
     71  H21        7.5580   -1.1250   18.1310 H     401  4YG401      0.0291
     72  H20        5.9300   -1.3580   18.7650 H     401  4YG401      0.0291
     73  H8        10.8190    3.3060   24.1410 H     401  4YG401      0.0575
     74  H4         8.4780    2.8800   24.4320 H     401  4YG401      0.0316
     75  H19        6.8180   -1.5910   21.0510 H     401  4YG401      0.0532
     76  H27        4.9340    2.8110   17.8670 H     401  4YG401      0.1487
     77  H18        9.5760   -1.4050   19.9710 H     401  4YG401      0.1491
     78  H9        10.1970    4.8230   21.6230 H     401  4YG401      0.1485
     79  H39        6.4630   -4.7440   19.7500 H     401  4YG401      0.2109
@<TRIPOS>BOND
     1    34     8    2
     2    76    30    1
     3     8    30   am
     4     8    14    1
     5    71    24    1
     6    30    12    1
     7    72    24    1
     8    24    14    1
     9    24    28    1
    10    14    52    1
    11    14    11    1
    12    39    79    1
    13    39    25    1
    14    12    49    1
    15    12    48    1
    16    12    11    1
    17    77    32    1
    18    25    28    1
    19    25     7    1
    20    28    32    1
    21    28    75    1
    22    68    23    1
    23    11    47    1
    24    11    46    1
    25    32     9   am
    26    70    23    1
    27    69    23    1
    28    23    41    1
    29    53    15    1
    30    36    10    2
    31     7    40   ar
    32     7    29   ar
    33    56    19    1
    34    40     6   ar
    35    78    33    1
    36    66    22    1
    37     9    15    1
    38     9    35    2
    39    15    17    1
    40    15    31    1
    41    58    19    1
    42    10    31   am
    43    10    26    1
    44    29     5   ar
    45    65    22    1
    46    19    18    1
    47    19    57    1
    48    33    41    1
    49    33    26    1
    50    59    20    1
    51    55    17    1
    52    41    38    2
    53    41    37    2
    54    22    67    1
    55    22    27    1
    56    17    18    1
    57    17    16    1
    58    31    13    1
    59    18    20    1
    60    18    16    1
    61     6     5   ar
    62     6     4   ar
    63    26    27    1
    64    26    73    1
    65    20    60    1
    66    20    61    1
    67     5     3   ar
    68    63    21    1
    69    27    21    1
    70    27    74    1
    71    16    13    1
    72    16    54    1
    73    45     4    1
    74    13    51    1
    75    13    50    1
    76     4     2   ar
    77    21    64    1
    78    21    62    1
    79     3    44    1
    80     3     1   ar
    81     2     1   ar
    82     2    43    1
    83     1    42    1
