@<TRIPOS>MOLECULE
/home/pku/3cl/gett_pdb/5SQZ/5SQZ_mol2/ligand/5SQZ_QXC.pdb
 28 30 0 0 0
SMALL
GASTEIGER

@<TRIPOS>ATOM
      1  C16      -47.1280  -32.2240    0.3280 C.ar  201  QXC201      0.0279
      2  C15      -46.4320  -33.2710   -0.2570 C.ar  201  QXC201     -0.0436
      3  C14      -45.0430  -33.2240   -0.2790 C.ar  201  QXC201     -0.0586
      4  C13      -44.4210  -32.1230    0.2920 C.ar  201  QXC201     -0.0391
      5  C12      -45.1810  -31.1170    0.8640 C.ar  201  QXC201      0.0551
      6  C11      -46.4120  -29.0540    4.5170 C.ar  201  QXC201      0.0395
      7  C10      -47.7610  -28.8870    4.1990 C.ar  201  QXC201     -0.0356
      8  C01      -44.4550  -29.9190    1.4760 C.3   201  QXC201      0.0409
      9  C03      -45.2410  -29.1620    3.7340 C.3   201  QXC201      0.1851
     10  C05      -44.0230  -29.3650    5.6960 C.2   201  QXC201      0.1048
     11  C07      -46.3180  -29.1090    5.8740 C.ar  201  QXC201      0.1286
     12  C09      -48.4620  -28.8450    5.3860 C.ar  201  QXC201      0.0038
     13  N02      -45.3320  -29.1060    2.2930 N.3   201  QXC201     -0.2801
     14  N04      -44.0900  -29.3140    4.3720 N.2   201  QXC201     -0.2434
     15  N06      -45.1020  -29.2690    6.4400 N.pl3 201  QXC201     -0.1859
     16  N08      -47.5860  -28.9800    6.3870 N.ar  201  QXC201     -0.3479
     17  N17      -46.5000  -31.1910    0.8630 N.ar  201  QXC201     -0.2586
     18 H161      -48.2150  -32.2580    0.3460 H     201  QXC201      0.0829
     19 H151      -46.9600  -34.1150   -0.6960 H     201  QXC201      0.0633
     20 H141      -44.4600  -34.0200   -0.7290 H     201  QXC201      0.0619
     21 H131      -43.3410  -32.0460    0.2960 H     201  QXC201      0.0636
     22 H101      -48.1700  -28.8070    3.2050 H     201  QXC201      0.0637
     23 H012      -43.6310  -30.2810    2.0780 H     201  QXC201      0.0490
     24 H011      -44.0660  -29.2960    0.6800 H     201  QXC201      0.0490
     25 H051      -43.0710  -29.4940    6.1830 H     201  QXC201      0.1015
     26 H091      -49.5250  -28.7290    5.4850 H     201  QXC201      0.0807
     27 H021      -46.0060  -28.5050    1.8690 H     201  QXC201      0.1250
     28 H081      -47.8150  -28.9890    7.3570 H     201  QXC201      0.1666
@<TRIPOS>BOND
     1    20     3    1
     2    19     2    1
     3     3     2   ar
     4     3     4   ar
     5     2     1   ar
     6     4    21    1
     7     4     5   ar
     8     1    18    1
     9     1    17   ar
    10    24     8    1
    11    17     5   ar
    12     5     8    1
    13     8    23    1
    14     8    13    1
    15    27    13    1
    16    13     9    1
    17    22     7    1
    18     9    14    1
    19     9     6    1
    20     7     6   ar
    21     7    12   ar
    22    14    10    2
    23     6    11   ar
    24    12    26    1
    25    12    16   ar
    26    10    25    1
    27    10    15    1
    28    11    16   ar
    29    11    15    1
    30    16    28    1
