@<TRIPOS>MOLECULE
/home/pku/3cl/gett_pdb/5SP8/5SP8_mol2/ligand/5SP8_RXI.pdb
 47 50 0 0 0
SMALL
GASTEIGER

@<TRIPOS>ATOM
      1  C18      -53.8720  -28.9280    6.9580 C.3   201  RXI201     -0.0328
      2  C16      -52.7000  -29.8770    6.8250 C.3   201  RXI201      0.0247
      3  C17      -53.3540  -29.6830    8.1900 C.3   201  RXI201     -0.0328
      4  C14      -50.6390  -29.3440    5.5820 C.2   201  RXI201      0.3041
      5  C12      -48.3680  -29.0120    4.6180 C.ar  201  RXI201      0.0348
      6  C11      -47.0980  -29.4950    4.8970 C.ar  201  RXI201     -0.0397
      7  C10      -46.1830  -29.6270    3.8820 C.ar  201  RXI201     -0.0479
      8  C20      -48.7660  -28.7690    3.3240 C.ar  201  RXI201     -0.0397
      9  C01      -45.6150  -35.0650   -1.4350 C.3   201  RXI201     -0.0044
     10  C02      -44.7180  -33.8220   -1.3180 C.ar  201  RXI201      0.1305
     11  C05      -43.8940  -32.0260   -0.5400 C.ar  201  RXI201      0.1510
     12  C06      -43.7170  -30.8490    0.3930 C.3   201  RXI201      0.0756
     13  C08      -45.4540  -29.4590    1.5230 C.2   201  RXI201      0.2476
     14  C09      -46.5540  -29.3400    2.5810 C.ar  201  RXI201      0.0370
     15  C21      -47.8320  -28.8980    2.3030 C.ar  201  RXI201     -0.0479
     16  C23      -45.2600  -32.0070    1.9880 C.3   201  RXI201      0.0932
     17  C24      -44.1340  -32.5860    2.8490 C.2   201  RXI201      0.1098
     18  C27      -45.7030  -32.9640    0.8800 C.3   201  RXI201      0.0507
     19  N03      -43.7670  -33.4020   -2.1340 N.ar  201  RXI201     -0.1346
     20  N04      -43.2490  -32.2700   -1.6620 N.ar  201  RXI201     -0.1327
     21  N07      -44.8340  -30.7480    1.3490 N.am  201  RXI201     -0.2794
     22  N13      -49.2500  -29.0390    5.7440 N.am  201  RXI201     -0.2695
     23  N15      -51.2990  -29.4920    6.8340 N.am  201  RXI201     -0.2963
     24  N28      -44.8110  -32.9520   -0.2790 N.ar  201  RXI201     -0.3115
     25  O19      -51.2050  -29.4190    4.5460 O.2   201  RXI201     -0.2525
     26  O22      -45.0680  -28.5180    0.9240 O.2   201  RXI201     -0.2700
     27  O25      -43.9540  -33.8340    2.8790 O.co2 201  RXI201     -0.8463
     28  O26      -43.4550  -31.7770    3.5390 O.co2 201  RXI201     -0.3070
     29 H181      -54.7080  -29.2690    6.5790 H     201  RXI201      0.0284
     30 H182      -53.6450  -28.0030    6.8940 H     201  RXI201      0.0284
     31 H161      -52.9440  -30.7280    6.4030 H     201  RXI201      0.0499
     32 H171      -52.8430  -29.1550    8.8140 H     201  RXI201      0.0284
     33 H172      -53.9060  -30.4210    8.4980 H     201  RXI201      0.0284
     34 H111      -46.8830  -29.7200    5.7680 H     201  RXI201      0.0636
     35 H101      -45.3400  -29.9150    4.0680 H     201  RXI201      0.0626
     36 H201      -49.6570  -28.4980    3.1440 H     201  RXI201      0.0636
     37 H013      -45.0640  -35.8340   -1.5800 H     201  RXI201      0.0308
     38 H012      -46.2280  -34.9480   -2.1860 H     201  RXI201      0.0308
     39 H011      -46.1470  -35.1880   -0.6230 H     201  RXI201      0.0308
     40 H062      -43.7010  -30.0420   -0.1250 H     201  RXI201      0.0545
     41 H061      -42.9210  -30.9630    0.9010 H     201  RXI201      0.0545
     42 H211      -48.1030  -28.6940    1.4320 H     201  RXI201      0.0626
     43 H231      -46.0360  -31.8540    2.5690 H     201  RXI201      0.0588
     44 H272      -45.7040  -33.8620    1.2680 H     201  RXI201      0.0515
     45 H271      -46.5970  -32.6760    0.6030 H     201  RXI201      0.0515
     46 H131      -48.9430  -29.1050    6.5280 H     201  RXI201      0.1564
     47 H151      -50.8670  -29.5040    7.5490 H     201  RXI201      0.1505
@<TRIPOS>UNITY_ATOM_ATTR
27 1
charge -1
@<TRIPOS>BOND
     1    38     9    1
     2    19    20   ar
     3    19    10   ar
     4    20    11   ar
     5    37     9    1
     6     9    10    1
     7     9    39    1
     8    10    24   ar
     9    11    24   ar
    10    11    12    1
    11    24    18    1
    12    40    12    1
    13    12    41    1
    14    12    21    1
    15    45    18    1
    16    18    44    1
    17    18    16    1
    18    26    13    2
    19    21    13   am
    20    21    16    1
    21    42    15    1
    22    13    14    1
    23    16    43    1
    24    16    17    1
    25    15    14   ar
    26    15     8   ar
    27    14     7   ar
    28    17    27   ar
    29    17    28   ar
    30    36     8    1
    31     8     5   ar
    32     7    35    1
    33     7     6   ar
    34    25     4    2
    35     5     6   ar
    36     5    22    1
    37     6    34    1
    38     4    22   am
    39     4    23   am
    40    22    46    1
    41    31     2    1
    42    29     1    1
    43     2    23    1
    44     2     1    1
    45     2     3    1
    46    23    47    1
    47    30     1    1
    48     1     3    1
    49     3    33    1
    50     3    32    1
