1MA
  -OEChem-02242320003D

 40 42  0     1  0  0  0  0  0999 V2000
   -5.0740   -0.9760    0.0700 P   0  0  0  0  0  0  0  0  0  0  0  0
   -6.1040    0.0100   -0.3270 O   0  0  0  0  0  0  0  0  0  0  0  0
   -5.6120   -1.8430    1.3150 O   0  0  0  0  0  0  0  0  0  0  0  0
   -4.7610   -1.9540   -1.1700 O   0  0  0  0  0  0  0  0  0  0  0  0
   -3.7280   -0.2030    0.4970 O   0  0  0  0  0  0  0  0  0  0  0  0
   -3.0630    0.7320   -0.3560 C   0  0  0  0  0  0  0  0  0  0  0  0
   -1.8240    1.2790    0.3540 C   0  0  1  0  0  0  0  0  0  0  0  0
   -0.8600    0.2280    0.5340 O   0  0  0  0  0  0  0  0  0  0  0  0
   -1.1600    2.3660   -0.5130 C   0  0  1  0  0  0  0  0  0  0  0  0
   -1.1270    3.6120    0.1860 O   0  0  0  0  0  0  0  0  0  0  0  0
    0.2760    1.8390   -0.7490 C   0  0  1  0  0  0  0  0  0  0  0  0
    1.2310    2.8980   -0.6510 O   0  0  0  0  0  0  0  0  0  0  0  0
    0.4470    0.8300    0.4150 C   0  0  2  0  0  0  0  0  0  0  0  0
    1.4520   -0.1810    0.0780 N   0  0  0  0  0  0  0  0  0  0  0  0
    1.2190   -1.3800   -0.5360 C   0  0  0  0  0  0  0  0  0  0  0  0
    2.3450   -2.0300   -0.6780 N   0  0  0  0  0  0  0  0  0  0  0  0
    3.3390   -1.2970   -0.1720 C   0  0  0  0  0  0  0  0  0  0  0  0
    4.7920   -1.5080   -0.0450 C   0  0  0  0  0  0  0  0  0  0  0  0
    5.3670   -2.6840   -0.1410 N   0  0  0  0  0  0  0  0  0  0  0  0
    5.4910   -0.3210    0.1890 N   0  0  0  0  0  0  0  0  0  0  0  0
    6.8740   -0.1690   -0.2710 C   0  0  0  0  0  0  0  0  0  0  0  0
    4.8660    0.6930    0.8520 C   0  0  0  0  0  0  0  0  0  0  0  0
    3.5650    0.8330    0.8920 N   0  0  0  0  0  0  0  0  0  0  0  0
    2.7850   -0.0970    0.3120 C   0  0  0  0  0  0  0  0  0  0  0  0
   -6.4230   -2.3360    1.1300 H   0  0  0  0  0  0  0  0  0  0  0  0
   -4.0930   -2.6270   -0.9810 H   0  0  0  0  0  0  0  0  0  0  0  0
   -2.7640    0.2330   -1.2780 H   0  0  0  0  0  0  0  0  0  0  0  0
   -3.7400    1.5540   -0.5910 H   0  0  0  0  0  0  0  0  0  0  0  0
   -2.1040    1.6940    1.3220 H   0  0  0  0  0  0  0  0  0  0  0  0
   -1.6890    2.4750   -1.4600 H   0  0  0  0  0  0  0  0  0  0  0  0
   -0.7190    4.3330   -0.3130 H   0  0  0  0  0  0  0  0  0  0  0  0
    0.3530    1.3370   -1.7140 H   0  0  0  0  0  0  0  0  0  0  0  0
    1.1080    3.6000   -1.3040 H   0  0  0  0  0  0  0  0  0  0  0  0
    0.7160    1.3480    1.3350 H   0  0  0  0  0  0  0  0  0  0  0  0
    0.2510   -1.7370   -0.8550 H   0  0  0  0  0  0  0  0  0  0  0  0
    6.3290   -2.7620   -0.0480 H   0  0  0  0  0  0  0  0  0  0  0  0
    6.8780    0.2450   -1.2790 H   0  0  0  0  0  0  0  0  0  0  0  0
    7.4080    0.5040    0.4000 H   0  0  0  0  0  0  0  0  0  0  0  0
    7.3650   -1.1420   -0.2760 H   0  0  0  0  0  0  0  0  0  0  0  0
    5.4750    1.4180    1.3710 H   0  0  0  0  0  0  0  0  0  0  0  0
  1  2  2  0  0  0  0
  1  3  1  0  0  0  0
  1  4  1  0  0  0  0
  1  5  1  0  0  0  0
  3 25  1  0  0  0  0
  4 26  1  0  0  0  0
  5  6  1  0  0  0  0
  6  7  1  0  0  0  0
  6 27  1  0  0  0  0
  6 28  1  0  0  0  0
  7  8  1  0  0  0  0
  7  9  1  0  0  0  0
  7 29  1  0  0  0  0
  8 13  1  0  0  0  0
  9 10  1  0  0  0  0
  9 11  1  0  0  0  0
  9 30  1  0  0  0  0
 10 31  1  0  0  0  0
 11 12  1  0  0  0  0
 11 13  1  0  0  0  0
 11 32  1  0  0  0  0
 12 33  1  0  0  0  0
 13 14  1  0  0  0  0
 13 34  1  0  0  0  0
 14 15  1  0  0  0  0
 14 24  1  0  0  0  0
 15 16  2  0  0  0  0
 15 35  1  0  0  0  0
 16 17  1  0  0  0  0
 17 18  1  0  0  0  0
 17 24  2  0  0  0  0
 18 19  2  0  0  0  0
 18 20  1  0  0  0  0
 19 36  1  0  0  0  0
 20 21  1  0  0  0  0
 20 22  1  0  0  0  0
 21 37  1  0  0  0  0
 21 38  1  0  0  0  0
 21 39  1  0  0  0  0
 22 23  2  0  0  0  0
 22 40  1  0  0  0  0
 23 24  1  0  0  0  0
M  END
> <OPENEYE_ISO_SMILES>
[H]/N=c\1/c2c(ncn1C)n(cn2)[C@H]3[C@@H]([C@@H]([C@H](O3)COP(=O)(O)O)O)O

> <OPENEYE_INCHI>
InChI=1S/C11H16N5O7P/c1-15-3-14-10-6(9(15)12)13-4-16(10)11-8(18)7(17)5(23-11)2-22-24(19,20)21/h3-5,7-8,11-12,17-18H,2H2,1H3,(H2,19,20,21)/b12-9-/t5-,7-,8-,11-/m1/s1

> <OPENEYE_INCHIKEY>
BKBYKEWNXKDACS-JOLDIKRXSA-N

> <FORMULA>
C11H16N5O7P

$$$$
