5MC
  -OEChem-02242320013D

 38 39  0     1  0  0  0  0  0999 V2000
    1.1300   -0.1000   -4.2320 P   0  0  0  0  0  0  0  0  0  0  0  0
    1.7080    1.2190   -3.8930 O   0  0  0  0  0  0  0  0  0  0  0  0
    2.2870   -1.0620   -4.8030 O   0  0  0  0  0  0  0  0  0  0  0  0
   -0.0130    0.0850   -5.3510 O   0  0  0  0  0  0  0  0  0  0  0  0
    0.4870   -0.7590   -2.9120 O   0  0  0  0  0  0  0  0  0  0  0  0
   -0.5280    0.1360   -2.4550 C   0  0  0  0  0  0  0  0  0  0  0  0
   -1.1820   -0.4340   -1.1960 C   0  0  1  0  0  0  0  0  0  0  0  0
   -0.2060   -0.5720   -0.1400 O   0  0  0  0  0  0  0  0  0  0  0  0
   -2.2310    0.5530   -0.6370 C   0  0  1  0  0  0  0  0  0  0  0  0
   -3.5450    0.1780   -1.0560 O   0  0  0  0  0  0  0  0  0  0  0  0
   -2.0920    0.4210    0.8970 C   0  0  1  0  0  0  0  0  0  0  0  0
   -3.3170   -0.0360    1.4730 O   0  0  0  0  0  0  0  0  0  0  0  0
   -0.9740   -0.6270    1.0820 C   0  0  2  0  0  0  0  0  0  0  0  0
   -0.1310   -0.2780    2.2280 N   0  0  0  0  0  0  0  0  0  0  0  0
    0.5050    0.9060    2.2550 C   0  0  0  0  0  0  0  0  0  0  0  0
    0.3740    1.6780    1.3200 O   0  0  0  0  0  0  0  0  0  0  0  0
    1.2770    1.2490    3.2850 N   0  0  0  0  0  0  0  0  0  0  0  0
    1.4320    0.4300    4.3170 C   0  0  0  0  0  0  0  0  0  0  0  0
    2.2310    0.7940    5.3750 N   0  0  0  0  0  0  0  0  0  0  0  0
    0.7820   -0.8210    4.3180 C   0  0  0  0  0  0  0  0  0  0  0  0
    0.0010   -1.1550    3.2630 C   0  0  0  0  0  0  0  0  0  0  0  0
    0.9490   -1.7690    5.4770 C   0  0  0  0  0  0  0  0  0  0  0  0
    2.6450   -0.6320   -5.5920 H   0  0  0  0  0  0  0  0  0  0  0  0
   -0.3620   -0.7950   -5.5420 H   0  0  0  0  0  0  0  0  0  0  0  0
   -1.2810    0.2580   -3.2330 H   0  0  0  0  0  0  0  0  0  0  0  0
   -0.0820    1.1040   -2.2260 H   0  0  0  0  0  0  0  0  0  0  0  0
   -1.6460   -1.3960   -1.4120 H   0  0  0  0  0  0  0  0  0  0  0  0
   -2.0050    1.5700   -0.9570 H   0  0  0  0  0  0  0  0  0  0  0  0
   -4.1540    0.8280   -0.6790 H   0  0  0  0  0  0  0  0  0  0  0  0
   -1.7970    1.3740    1.3370 H   0  0  0  0  0  0  0  0  0  0  0  0
   -3.9870    0.6310    1.2720 H   0  0  0  0  0  0  0  0  0  0  0  0
   -1.4030   -1.6200    1.2150 H   0  0  0  0  0  0  0  0  0  0  0  0
    2.6830    1.6530    5.3690 H   0  0  0  0  0  0  0  0  0  0  0  0
    2.3430    0.1940    6.1290 H   0  0  0  0  0  0  0  0  0  0  0  0
   -0.5090   -2.1060    3.2420 H   0  0  0  0  0  0  0  0  0  0  0  0
    1.6100   -1.3220    6.2200 H   0  0  0  0  0  0  0  0  0  0  0  0
   -0.0230   -1.9660    5.9280 H   0  0  0  0  0  0  0  0  0  0  0  0
    1.3810   -2.7050    5.1220 H   0  0  0  0  0  0  0  0  0  0  0  0
  1  2  2  0  0  0  0
  1  3  1  0  0  0  0
  1  4  1  0  0  0  0
  1  5  1  0  0  0  0
  3 23  1  0  0  0  0
  4 24  1  0  0  0  0
  5  6  1  0  0  0  0
  6  7  1  0  0  0  0
  6 25  1  0  0  0  0
  6 26  1  0  0  0  0
  7  8  1  0  0  0  0
  7  9  1  0  0  0  0
  7 27  1  0  0  0  0
  8 13  1  0  0  0  0
  9 10  1  0  0  0  0
  9 11  1  0  0  0  0
  9 28  1  0  0  0  0
 10 29  1  0  0  0  0
 11 12  1  0  0  0  0
 11 13  1  0  0  0  0
 11 30  1  0  0  0  0
 12 31  1  0  0  0  0
 13 14  1  0  0  0  0
 13 32  1  0  0  0  0
 14 15  1  0  0  0  0
 14 21  1  0  0  0  0
 15 16  2  0  0  0  0
 15 17  1  0  0  0  0
 17 18  2  0  0  0  0
 18 19  1  0  0  0  0
 18 20  1  0  0  0  0
 19 33  1  0  0  0  0
 19 34  1  0  0  0  0
 20 21  2  0  0  0  0
 20 22  1  0  0  0  0
 21 35  1  0  0  0  0
 22 36  1  0  0  0  0
 22 37  1  0  0  0  0
 22 38  1  0  0  0  0
M  END
> <OPENEYE_ISO_SMILES>
Cc1cn(c(=O)nc1N)[C@H]2[C@@H]([C@@H]([C@H](O2)COP(=O)(O)O)O)O

> <OPENEYE_INCHI>
InChI=1S/C10H16N3O8P/c1-4-2-13(10(16)12-8(4)11)9-7(15)6(14)5(21-9)3-20-22(17,18)19/h2,5-7,9,14-15H,3H2,1H3,(H2,11,12,16)(H2,17,18,19)/t5-,6-,7-,9-/m1/s1

> <OPENEYE_INCHIKEY>
NJQONZSFUKNYOY-JXOAFFINSA-N

> <FORMULA>
C10H16N3O8P

$$$$
