5MU
  -OEChem-02242320013D

 37 38  0     1  0  0  0  0  0999 V2000
   -0.1200   -0.2740    2.2260 N   0  0  0  0  0  0  0  0  0  0  0  0
    0.5120    0.9120    2.2450 C   0  0  0  0  0  0  0  0  0  0  0  0
    1.2950    1.2610    3.2820 N   0  0  0  0  0  0  0  0  0  0  0  0
    1.4530    0.4240    4.3270 C   0  0  0  0  0  0  0  0  0  0  0  0
    0.7960   -0.8290    4.3170 C   0  0  0  0  0  0  0  0  0  0  0  0
    0.9590   -1.7860    5.4700 C   0  0  0  0  0  0  0  0  0  0  0  0
    0.0160   -1.1550    3.2640 C   0  0  0  0  0  0  0  0  0  0  0  0
    0.3750    1.6790    1.3120 O   0  0  0  0  0  0  0  0  0  0  0  0
    2.1610    0.7390    5.2660 O   0  0  0  0  0  0  0  0  0  0  0  0
   -0.9660   -0.6270    1.0830 C   0  0  1  0  0  0  0  0  0  0  0  0
   -2.0880    0.4190    0.9000 C   0  0  2  0  0  0  0  0  0  0  0  0
   -3.3100   -0.0400    1.4820 O   0  0  0  0  0  0  0  0  0  0  0  0
   -2.2330    0.5470   -0.6330 C   0  0  1  0  0  0  0  0  0  0  0  0
   -1.1840   -0.4380   -1.1940 C   0  0  2  0  0  0  0  0  0  0  0  0
   -3.5470    0.1690   -1.0460 O   0  0  0  0  0  0  0  0  0  0  0  0
   -0.2040   -0.5720   -0.1420 O   0  0  0  0  0  0  0  0  0  0  0  0
   -0.5360    0.1310   -2.4570 C   0  0  0  0  0  0  0  0  0  0  0  0
    0.4790   -0.7630   -2.9160 O   0  0  0  0  0  0  0  0  0  0  0  0
    1.1150   -0.1040   -4.2400 P   0  0  0  0  0  0  0  0  0  0  0  0
    1.6920    1.2170   -3.9060 O   0  0  0  0  0  0  0  0  0  0  0  0
    2.2730   -1.0650   -4.8140 O   0  0  0  0  0  0  0  0  0  0  0  0
   -0.0320    0.0770   -5.3540 O   0  0  0  0  0  0  0  0  0  0  0  0
    1.7450    2.1210    3.2800 H   0  0  0  0  0  0  0  0  0  0  0  0
    1.6220   -1.3460    6.2160 H   0  0  0  0  0  0  0  0  0  0  0  0
   -0.0130   -1.9830    5.9200 H   0  0  0  0  0  0  0  0  0  0  0  0
    1.3890   -2.7200    5.1090 H   0  0  0  0  0  0  0  0  0  0  0  0
   -0.4950   -2.1050    3.2410 H   0  0  0  0  0  0  0  0  0  0  0  0
   -1.3930   -1.6210    1.2200 H   0  0  0  0  0  0  0  0  0  0  0  0
   -1.7930    1.3720    1.3380 H   0  0  0  0  0  0  0  0  0  0  0  0
   -3.9820    0.6250    1.2820 H   0  0  0  0  0  0  0  0  0  0  0  0
   -2.0110    1.5650   -0.9550 H   0  0  0  0  0  0  0  0  0  0  0  0
   -1.6460   -1.4020   -1.4070 H   0  0  0  0  0  0  0  0  0  0  0  0
   -4.1570    0.8180   -0.6680 H   0  0  0  0  0  0  0  0  0  0  0  0
   -1.2930    0.2500   -3.2320 H   0  0  0  0  0  0  0  0  0  0  0  0
   -0.0910    1.1000   -2.2320 H   0  0  0  0  0  0  0  0  0  0  0  0
    2.6270   -0.6340   -5.6040 H   0  0  0  0  0  0  0  0  0  0  0  0
   -0.3800   -0.8040   -5.5430 H   0  0  0  0  0  0  0  0  0  0  0  0
  1  2  1  0  0  0  0
  1  7  1  0  0  0  0
  1 10  1  0  0  0  0
  2  3  1  0  0  0  0
  2  8  2  0  0  0  0
  3  4  1  0  0  0  0
  3 23  1  0  0  0  0
  4  5  1  0  0  0  0
  4  9  2  0  0  0  0
  5  6  1  0  0  0  0
  5  7  2  0  0  0  0
  6 24  1  0  0  0  0
  6 25  1  0  0  0  0
  6 26  1  0  0  0  0
  7 27  1  0  0  0  0
 10 11  1  0  0  0  0
 10 16  1  0  0  0  0
 10 28  1  0  0  0  0
 11 12  1  0  0  0  0
 11 13  1  0  0  0  0
 11 29  1  0  0  0  0
 12 30  1  0  0  0  0
 13 14  1  0  0  0  0
 13 15  1  0  0  0  0
 13 31  1  0  0  0  0
 14 16  1  0  0  0  0
 14 17  1  0  0  0  0
 14 32  1  0  0  0  0
 15 33  1  0  0  0  0
 17 18  1  0  0  0  0
 17 34  1  0  0  0  0
 17 35  1  0  0  0  0
 18 19  1  0  0  0  0
 19 20  2  0  0  0  0
 19 21  1  0  0  0  0
 19 22  1  0  0  0  0
 21 36  1  0  0  0  0
 22 37  1  0  0  0  0
M  END
> <OPENEYE_ISO_SMILES>
Cc1cn(c(=O)[nH]c1=O)[C@H]2[C@@H]([C@@H]([C@H](O2)COP(=O)(O)O)O)O

> <OPENEYE_INCHI>
InChI=1S/C10H15N2O9P/c1-4-2-12(10(16)11-8(4)15)9-7(14)6(13)5(21-9)3-20-22(17,18)19/h2,5-7,9,13-14H,3H2,1H3,(H,11,15,16)(H2,17,18,19)/t5-,6-,7-,9-/m1/s1

> <OPENEYE_INCHIKEY>
IGWHDMPTQKSDTL-JXOAFFINSA-N

> <FORMULA>
C10H15N2O9P

$$$$
