6MZ
  -OEChem-02242320013D

 40 42  0     1  0  0  0  0  0999 V2000
    4.8500   -1.0590   -0.9610 C   0  0  0  0  0  0  0  0  0  0  0  0
    2.8110   -0.2110   -0.3240 C   0  0  0  0  0  0  0  0  0  0  0  0
    3.4520    0.9510    0.1400 C   0  0  0  0  0  0  0  0  0  0  0  0
   -6.2500    0.2440    0.1380 O   0  0  0  0  0  0  0  0  0  0  0  0
   -4.7060    1.9440    1.1860 O   0  0  0  0  0  0  0  0  0  0  0  0
    1.4730   -0.0280   -0.0800 N   0  0  0  0  0  0  0  0  0  0  0  0
    3.5430   -1.1810   -0.8620 N   0  0  0  0  0  0  0  0  0  0  0  0
    5.4960    0.0130   -0.5400 N   0  0  0  0  0  0  0  0  0  0  0  0
    4.8480    1.0340    0.0120 C   0  0  0  0  0  0  0  0  0  0  0  0
    5.5340    2.1540    0.4490 N   0  0  0  0  0  0  0  0  0  0  0  0
    6.9900    2.2230    0.3080 C   0  0  0  0  0  0  0  0  0  0  0  0
    2.4900    1.7670    0.6330 N   0  0  0  0  0  0  0  0  0  0  0  0
    1.3280    1.1950    0.5050 C   0  0  0  0  0  0  0  0  0  0  0  0
   -3.6980    0.3440   -0.4860 O   0  0  0  0  0  0  0  0  0  0  0  0
   -3.0930   -0.6120    0.3880 C   0  0  0  0  0  0  0  0  0  0  0  0
   -1.8980   -1.2600   -0.3130 C   0  0  1  0  0  0  0  0  0  0  0  0
   -0.8640   -0.2840   -0.5190 O   0  0  0  0  0  0  0  0  0  0  0  0
    0.3980   -0.9730   -0.3910 C   0  0  2  0  0  0  0  0  0  0  0  0
    0.1620   -1.9420    0.7960 C   0  0  2  0  0  0  0  0  0  0  0  0
    1.0400   -3.0660    0.7190 O   0  0  0  0  0  0  0  0  0  0  0  0
   -1.3110   -2.3750    0.5740 C   0  0  2  0  0  0  0  0  0  0  0  0
   -1.3690   -3.6330   -0.1000 O   0  0  0  0  0  0  0  0  0  0  0  0
   -4.9850    1.2180   -0.0730 P   0  0  0  0  0  0  0  0  0  0  0  0
   -5.3130    2.2760   -1.2420 O   0  0  0  0  0  0  0  0  0  0  0  0
    5.4160   -1.8680   -1.3990 H   0  0  0  0  0  0  0  0  0  0  0  0
   -6.4900   -0.2650   -0.6480 H   0  0  0  0  0  0  0  0  0  0  0  0
    0.3880    1.6250    0.8170 H   0  0  0  0  0  0  0  0  0  0  0  0
    0.6270   -1.5270   -1.3020 H   0  0  0  0  0  0  0  0  0  0  0  0
    7.4490    1.4010    0.8590 H   0  0  0  0  0  0  0  0  0  0  0  0
    7.2570    2.1460   -0.7470 H   0  0  0  0  0  0  0  0  0  0  0  0
   -2.7540   -0.1110    1.2950 H   0  0  0  0  0  0  0  0  0  0  0  0
   -3.8220   -1.3790    0.6480 H   0  0  0  0  0  0  0  0  0  0  0  0
   -2.2120   -1.6750   -1.2710 H   0  0  0  0  0  0  0  0  0  0  0  0
   -1.8420   -2.4250    1.5250 H   0  0  0  0  0  0  0  0  0  0  0  0
    0.2780   -1.4250    1.7480 H   0  0  0  0  0  0  0  0  0  0  0  0
    0.9310   -3.7010    1.4400 H   0  0  0  0  0  0  0  0  0  0  0  0
   -1.0120   -4.3710    0.4140 H   0  0  0  0  0  0  0  0  0  0  0  0
   -6.0790    2.8380   -1.0600 H   0  0  0  0  0  0  0  0  0  0  0  0
    5.0500    2.8930    0.8500 H   0  0  0  0  0  0  0  0  0  0  0  0
    7.3500    3.1720    0.7050 H   0  0  0  0  0  0  0  0  0  0  0  0
  2  3  1  0  0  0  0
  2  6  1  0  0  0  0
  1  7  1  0  0  0  0
  2  7  2  0  0  0  0
  1  8  2  0  0  0  0
  3  9  2  0  0  0  0
  8  9  1  0  0  0  0
  9 10  1  0  0  0  0
 10 11  1  0  0  0  0
  3 12  1  0  0  0  0
  6 13  1  0  0  0  0
 12 13  2  0  0  0  0
 14 15  1  0  0  0  0
 18 28  1  0  0  0  0
 11 29  1  0  0  0  0
 11 30  1  0  0  0  0
 15 31  1  0  0  0  0
 15 32  1  0  0  0  0
 16 33  1  0  0  0  0
 21 34  1  0  0  0  0
 19 35  1  0  0  0  0
 20 36  1  0  0  0  0
 22 37  1  0  0  0  0
 24 38  1  0  0  0  0
 15 16  1  0  0  0  0
 16 17  1  0  0  0  0
  6 18  1  0  0  0  0
 17 18  1  0  0  0  0
 18 19  1  0  0  0  0
 19 20  1  0  0  0  0
 16 21  1  0  0  0  0
 19 21  1  0  0  0  0
 21 22  1  0  0  0  0
  4 23  1  0  0  0  0
  5 23  2  0  0  0  0
 14 23  1  0  0  0  0
 23 24  1  0  0  0  0
  1 25  1  0  0  0  0
  4 26  1  0  0  0  0
 13 27  1  0  0  0  0
 10 39  1  0  0  0  0
 11 40  1  0  0  0  0
M  END
> <OPENEYE_ISO_SMILES>
CNc1c2c(ncn1)n(cn2)[C@H]3[C@@H]([C@@H]([C@H](O3)COP(=O)(O)O)O)O

> <OPENEYE_INCHI>
InChI=1S/C11H16N5O7P/c1-12-9-6-10(14-3-13-9)16(4-15-6)11-8(18)7(17)5(23-11)2-22-24(19,20)21/h3-5,7-8,11,17-18H,2H2,1H3,(H,12,13,14)(H2,19,20,21)/t5-,7-,8-,11-/m1/s1

> <OPENEYE_INCHIKEY>
WETVNPRPZIYMAC-IOSLPCCCSA-N

> <FORMULA>
C11H16N5O7P

$$$$
