A2M
  -OEChem-02242320013D

 40 42  0     1  0  0  0  0  0999 V2000
    4.8770    1.0150    0.0240 P   0  0  0  0  0  0  0  0  0  0  0  0
    5.8860   -0.0210   -0.2910 O   0  0  0  0  0  0  0  0  0  0  0  0
    4.5760    1.8900   -1.2930 O   0  0  0  0  0  0  0  0  0  0  0  0
    3.5180    0.3070    0.5200 O   0  0  0  0  0  0  0  0  0  0  0  0
    2.8310   -0.6830   -0.2480 C   0  0  0  0  0  0  0  0  0  0  0  0
    1.5850   -1.1430    0.5110 C   0  0  1  0  0  0  0  0  0  0  0  0
    0.6420   -0.0620    0.6040 O   0  0  0  0  0  0  0  0  0  0  0  0
    0.8960   -2.2870   -0.2580 C   0  0  1  0  0  0  0  0  0  0  0  0
    0.8420   -3.4680    0.5440 O   0  0  0  0  0  0  0  0  0  0  0  0
   -0.5310   -1.7540   -0.5330 C   0  0  1  0  0  0  0  0  0  0  0  0
   -1.5050   -2.7820   -0.3420 O   0  0  0  0  0  0  0  0  0  0  0  0
   -0.6770   -0.6470    0.5410 C   0  0  2  0  0  0  0  0  0  0  0  0
   -1.8120   -3.5200   -1.5260 C   0  0  0  0  0  0  0  0  0  0  0  0
   -1.6640    0.3520    0.1230 N   0  0  0  0  0  0  0  0  0  0  0  0
   -1.4120    1.4860   -0.5890 C   0  0  0  0  0  0  0  0  0  0  0  0
   -2.5180    2.1430   -0.7850 N   0  0  0  0  0  0  0  0  0  0  0  0
   -3.5470    1.4730   -0.2130 C   0  0  0  0  0  0  0  0  0  0  0  0
   -4.9310    1.6940   -0.1050 C   0  0  0  0  0  0  0  0  0  0  0  0
   -5.5160    2.8150   -0.6660 N   0  0  0  0  0  0  0  0  0  0  0  0
   -5.6650    0.7990    0.5490 N   0  0  0  0  0  0  0  0  0  0  0  0
   -5.1160   -0.2750    1.0870 C   0  0  0  0  0  0  0  0  0  0  0  0
   -3.8260   -0.5220    1.0110 N   0  0  0  0  0  0  0  0  0  0  0  0
   -3.0130    0.3130    0.3720 C   0  0  0  0  0  0  0  0  0  0  0  0
    3.9220    2.5900   -1.1600 H   0  0  0  0  0  0  0  0  0  0  0  0
    2.5360   -0.2590   -1.2080 H   0  0  0  0  0  0  0  0  0  0  0  0
    3.4900   -1.5350   -0.4150 H   0  0  0  0  0  0  0  0  0  0  0  0
    1.8630   -1.4800    1.5100 H   0  0  0  0  0  0  0  0  0  0  0  0
    1.4180   -2.4870   -1.1940 H   0  0  0  0  0  0  0  0  0  0  0  0
    1.7110   -3.8130    0.7960 H   0  0  0  0  0  0  0  0  0  0  0  0
   -0.6030   -1.3350   -1.5370 H   0  0  0  0  0  0  0  0  0  0  0  0
   -0.9500   -1.0790    1.5040 H   0  0  0  0  0  0  0  0  0  0  0  0
   -2.5580   -4.2810   -1.2970 H   0  0  0  0  0  0  0  0  0  0  0  0
   -2.2030   -2.8430   -2.2850 H   0  0  0  0  0  0  0  0  0  0  0  0
   -0.9070   -4.0000   -1.8990 H   0  0  0  0  0  0  0  0  0  0  0  0
   -0.4380    1.7950   -0.9390 H   0  0  0  0  0  0  0  0  0  0  0  0
   -4.9690    3.4610   -1.1410 H   0  0  0  0  0  0  0  0  0  0  0  0
   -6.4720    2.9560   -0.5840 H   0  0  0  0  0  0  0  0  0  0  0  0
   -5.7500   -0.9760    1.6100 H   0  0  0  0  0  0  0  0  0  0  0  0
    5.4380    1.9740    1.1890 O   0  0  0  0  0  0  0  0  0  0  0  0
    6.2570    2.4340    0.9590 H   0  0  0  0  0  0  0  0  0  0  0  0
  1  2  2  0  0  0  0
  1  3  1  0  0  0  0
  1  4  1  0  0  0  0
  3 24  1  0  0  0  0
  4  5  1  0  0  0  0
  5  6  1  0  0  0  0
  5 25  1  0  0  0  0
  5 26  1  0  0  0  0
  6  7  1  0  0  0  0
  6  8  1  0  0  0  0
  6 27  1  0  0  0  0
  7 12  1  0  0  0  0
  8  9  1  0  0  0  0
  8 10  1  0  0  0  0
  8 28  1  0  0  0  0
  9 29  1  0  0  0  0
 10 11  1  0  0  0  0
 10 12  1  0  0  0  0
 10 30  1  0  0  0  0
 11 13  1  0  0  0  0
 12 14  1  0  0  0  0
 12 31  1  0  0  0  0
 13 32  1  0  0  0  0
 13 33  1  0  0  0  0
 13 34  1  0  0  0  0
 14 15  1  0  0  0  0
 14 23  1  0  0  0  0
 15 16  2  0  0  0  0
 15 35  1  0  0  0  0
 16 17  1  0  0  0  0
 17 18  1  0  0  0  0
 17 23  2  0  0  0  0
 18 19  1  0  0  0  0
 18 20  2  0  0  0  0
 19 36  1  0  0  0  0
 19 37  1  0  0  0  0
 20 21  1  0  0  0  0
 21 22  2  0  0  0  0
 21 38  1  0  0  0  0
 22 23  1  0  0  0  0
  1 39  1  0  0  0  0
 39 40  1  0  0  0  0
M  END
> <OPENEYE_ISO_SMILES>
CO[C@@H]1[C@@H]([C@H](O[C@H]1n2cnc3c2ncnc3N)COP(=O)(O)O)O

> <OPENEYE_INCHI>
InChI=1S/C11H16N5O7P/c1-21-8-7(17)5(2-22-24(18,19)20)23-11(8)16-4-15-6-9(12)13-3-14-10(6)16/h3-5,7-8,11,17H,2H2,1H3,(H2,12,13,14)(H2,18,19,20)/t5-,7-,8-,11-/m1/s1

> <OPENEYE_INCHIKEY>
TVGFEBXIZUYVFR-IOSLPCCCSA-N

> <FORMULA>
C11H16N5O7P

$$$$
