AAC
  -OEChem-02242320013D

 15 14  0     0  0  0  0  0  0999 V2000
   -0.0630    0.0000   -1.8330 C   0  0  0  0  0  0  0  0  0  0  0  0
    0.6500    0.0000   -0.5050 C   0  0  0  0  0  0  0  0  0  0  0  0
    0.0750    0.0000    1.8620 C   0  0  0  0  0  0  0  0  0  0  0  0
   -0.9370    0.0000    2.9770 C   0  0  0  0  0  0  0  0  0  0  0  0
   -0.3350    0.0000    0.5780 N   0  0  0  0  0  0  0  0  0  0  0  0
    0.6420    0.0000   -2.9740 O   0  0  0  0  0  0  0  0  0  0  0  0
   -1.2710    0.0000   -1.8690 O   0  0  0  0  0  0  0  0  0  0  0  0
    1.2600    0.0000    2.1190 O   0  0  0  0  0  0  0  0  0  0  0  0
    1.2740    0.8900   -0.4290 H   0  0  0  0  0  0  0  0  0  0  0  0
    1.2740   -0.8900   -0.4290 H   0  0  0  0  0  0  0  0  0  0  0  0
   -0.4210    0.0000    3.9370 H   0  0  0  0  0  0  0  0  0  0  0  0
   -1.5620    0.8900    2.9000 H   0  0  0  0  0  0  0  0  0  0  0  0
   -1.5620   -0.8900    2.9000 H   0  0  0  0  0  0  0  0  0  0  0  0
   -1.2820    0.0000    0.3720 H   0  0  0  0  0  0  0  0  0  0  0  0
    0.1840    0.0000   -3.8260 H   0  0  0  0  0  0  0  0  0  0  0  0
  1  2  1  0  0  0  0
  1  6  1  0  0  0  0
  1  7  2  0  0  0  0
  2  5  1  0  0  0  0
  2  9  1  0  0  0  0
  2 10  1  0  0  0  0
  3  4  1  0  0  0  0
  3  5  1  0  0  0  0
  3  8  2  0  0  0  0
  4 11  1  0  0  0  0
  4 12  1  0  0  0  0
  4 13  1  0  0  0  0
  5 14  1  0  0  0  0
  6 15  1  0  0  0  0
M  END
> <OPENEYE_ISO_SMILES>
CC(=O)NCC(=O)O

> <OPENEYE_INCHI>
InChI=1S/C4H7NO3/c1-3(6)5-2-4(7)8/h2H2,1H3,(H,5,6)(H,7,8)

> <OPENEYE_INCHIKEY>
OKJIRPAQVSHGFK-UHFFFAOYSA-N

> <FORMULA>
C4H7NO3

$$$$
