AME
  -OEChem-02242320013D

 25 24  0     1  0  0  0  0  0999 V2000
   -2.4020    2.8350    0.6110 C   0  0  0  0  0  0  0  0  0  0  0  0
   -1.9870    1.5790   -0.1110 C   0  0  0  0  0  0  0  0  0  0  0  0
   -2.4800    1.3060   -1.1850 O   0  0  0  0  0  0  0  0  0  0  0  0
    0.7410   -0.8670    0.1840 C   0  0  0  0  0  0  0  0  0  0  0  0
    1.7440    0.2020   -0.2540 C   0  0  0  0  0  0  0  0  0  0  0  0
    3.4110   -0.2790    0.2780 S   0  0  0  0  0  0  0  0  0  0  0  0
    4.3620    1.1290   -0.3580 C   0  0  0  0  0  0  0  0  0  0  0  0
   -1.6330   -1.5700    0.0570 C   0  0  0  0  0  0  0  0  0  0  0  0
   -2.5660   -1.3610    0.7970 O   0  0  0  0  0  0  0  0  0  0  0  0
   -1.4610   -2.7890   -0.4780 O   0  0  0  0  0  0  0  0  0  0  0  0
   -1.0680    0.7590    0.4370 N   0  0  0  0  0  0  0  0  0  0  0  0
   -0.6640   -0.4620   -0.2650 C   0  0  1  0  0  0  0  0  0  0  0  0
   -2.3160    2.6810    1.6870 H   0  0  0  0  0  0  0  0  0  0  0  0
   -3.4350    3.0740    0.3590 H   0  0  0  0  0  0  0  0  0  0  0  0
   -1.7540    3.6580    0.3100 H   0  0  0  0  0  0  0  0  0  0  0  0
    0.7630   -0.9620    1.2690 H   0  0  0  0  0  0  0  0  0  0  0  0
    1.0060   -1.8220   -0.2700 H   0  0  0  0  0  0  0  0  0  0  0  0
    1.7230    0.2970   -1.3400 H   0  0  0  0  0  0  0  0  0  0  0  0
    1.4790    1.1570    0.2000 H   0  0  0  0  0  0  0  0  0  0  0  0
    4.0000    2.0490    0.1000 H   0  0  0  0  0  0  0  0  0  0  0  0
    4.2430    1.1900   -1.4390 H   0  0  0  0  0  0  0  0  0  0  0  0
    5.4170    0.9940   -0.1150 H   0  0  0  0  0  0  0  0  0  0  0  0
   -2.0830   -3.5000   -0.2710 H   0  0  0  0  0  0  0  0  0  0  0  0
   -0.6730    0.9780    1.2960 H   0  0  0  0  0  0  0  0  0  0  0  0
   -0.6640   -0.2800   -1.3400 H   0  0  0  0  0  0  0  0  0  0  0  0
  1  2  1  0  0  0  0
  1 13  1  0  0  0  0
  1 14  1  0  0  0  0
  1 15  1  0  0  0  0
  2  3  2  0  0  0  0
  2 11  1  0  0  0  0
  4  5  1  0  0  0  0
  4 12  1  0  0  0  0
  4 16  1  0  0  0  0
  4 17  1  0  0  0  0
  5  6  1  0  0  0  0
  5 18  1  0  0  0  0
  5 19  1  0  0  0  0
  6  7  1  0  0  0  0
  7 20  1  0  0  0  0
  7 21  1  0  0  0  0
  7 22  1  0  0  0  0
  8  9  2  0  0  0  0
  8 10  1  0  0  0  0
  8 12  1  0  0  0  0
 10 23  1  0  0  0  0
 11 12  1  0  0  0  0
 11 24  1  0  0  0  0
 12 25  1  0  0  0  0
M  END
> <OPENEYE_ISO_SMILES>
CC(=O)N[C@@H](CCSC)C(=O)O

> <OPENEYE_INCHI>
InChI=1S/C7H13NO3S/c1-5(9)8-6(7(10)11)3-4-12-2/h6H,3-4H2,1-2H3,(H,8,9)(H,10,11)/t6-/m0/s1

> <OPENEYE_INCHIKEY>
XUYPXLNMDZIRQH-LURJTMIESA-N

> <FORMULA>
C7H13NO3S

$$$$
