AYA
  -OEChem-02242320013D

 18 17  0     1  0  0  0  0  0999 V2000
   -0.3480   -0.3120    0.6650 N   0  0  0  0  0  0  0  0  0  0  0  0
    0.4920    0.0790   -0.4680 C   0  0  1  0  0  0  0  0  0  0  0  0
    1.6140   -0.9450   -0.6480 C   0  0  0  0  0  0  0  0  0  0  0  0
   -0.3440    0.1330   -1.7190 C   0  0  0  0  0  0  0  0  0  0  0  0
   -1.5230   -0.1280   -1.6690 O   0  0  0  0  0  0  0  0  0  0  0  0
    0.2180    0.4710   -2.8900 O   0  0  0  0  0  0  0  0  0  0  0  0
   -0.0540    0.1260    1.9050 C   0  0  0  0  0  0  0  0  0  0  0  0
    0.9060    0.8450    2.0830 O   0  0  0  0  0  0  0  0  0  0  0  0
   -0.9190   -0.2760    3.0720 C   0  0  0  0  0  0  0  0  0  0  0  0
   -1.1160   -0.8870    0.5240 H   0  0  0  0  0  0  0  0  0  0  0  0
    0.9250    1.0610   -0.2770 H   0  0  0  0  0  0  0  0  0  0  0  0
    1.1820   -1.9270   -0.8390 H   0  0  0  0  0  0  0  0  0  0  0  0
    2.2400   -0.6530   -1.4920 H   0  0  0  0  0  0  0  0  0  0  0  0
    2.2200   -0.9840    0.2560 H   0  0  0  0  0  0  0  0  0  0  0  0
   -0.3190    0.5060   -3.6930 H   0  0  0  0  0  0  0  0  0  0  0  0
   -0.5280    0.1710    3.9860 H   0  0  0  0  0  0  0  0  0  0  0  0
   -1.9380    0.0700    2.9050 H   0  0  0  0  0  0  0  0  0  0  0  0
   -0.9150   -1.3620    3.1690 H   0  0  0  0  0  0  0  0  0  0  0  0
  1  2  1  0  0  0  0
  1  7  1  0  0  0  0
  1 10  1  0  0  0  0
  2  3  1  0  0  0  0
  2  4  1  0  0  0  0
  2 11  1  0  0  0  0
  3 12  1  0  0  0  0
  3 13  1  0  0  0  0
  3 14  1  0  0  0  0
  4  5  2  0  0  0  0
  4  6  1  0  0  0  0
  6 15  1  0  0  0  0
  7  8  2  0  0  0  0
  7  9  1  0  0  0  0
  9 16  1  0  0  0  0
  9 17  1  0  0  0  0
  9 18  1  0  0  0  0
M  END
> <OPENEYE_ISO_SMILES>
C[C@@H](C(=O)O)NC(=O)C

> <OPENEYE_INCHI>
InChI=1S/C5H9NO3/c1-3(5(8)9)6-4(2)7/h3H,1-2H3,(H,6,7)(H,8,9)/t3-/m0/s1

> <OPENEYE_INCHIKEY>
KTHDTJVBEPMMGL-VKHMYHEASA-N

> <FORMULA>
C5H9NO3

$$$$
