B8N
  -OEChem-02242320013D

 51 52  0     1  0  0  0  0  0999 V2000
    3.7980    0.6860    0.6000 O   0  0  0  0  0  0  0  0  0  0  0  0
    3.2840    0.1090   -0.6020 C   0  0  0  0  0  0  0  0  0  0  0  0
    2.7510   -1.2950   -0.3070 C   0  0  1  0  0  0  0  0  0  0  0  0
    1.5970   -1.2290    0.5580 O   0  0  0  0  0  0  0  0  0  0  0  0
    2.1980   -1.9510   -1.5980 C   0  0  1  0  0  0  0  0  0  0  0  0
    3.2400   -2.6070   -2.3230 O   0  0  0  0  0  0  0  0  0  0  0  0
    1.1880   -2.9780   -1.0320 C   0  0  1  0  0  0  0  0  0  0  0  0
    1.7790   -4.2780   -0.9670 O   0  0  0  0  0  0  0  0  0  0  0  0
    0.8700   -2.4560    0.3820 C   0  0  2  0  0  0  0  0  0  0  0  0
   -0.6090   -2.1990    0.5130 C   0  0  0  0  0  0  0  0  0  0  0  0
   -1.3530   -2.9120    1.3860 C   0  0  0  0  0  0  0  0  0  0  0  0
   -2.6950   -2.6660    1.4920 N   0  0  0  0  0  0  0  0  0  0  0  0
   -3.2800   -1.7200    0.7350 C   0  0  0  0  0  0  0  0  0  0  0  0
   -2.5620   -0.9940   -0.1420 N   0  0  0  0  0  0  0  0  0  0  0  0
   -1.2370   -1.2020   -0.2720 C   0  0  0  0  0  0  0  0  0  0  0  0
   -3.7450    3.7790   -0.3890 C   0  0  0  0  0  0  0  0  0  0  0  0
   -3.5020   -3.4410    2.4380 C   0  0  0  0  0  0  0  0  0  0  0  0
   -5.3070    2.1050   -1.2050 N   0  0  0  0  0  0  0  0  0  0  0  0
   -4.4740   -1.5180    0.8460 O   0  0  0  0  0  0  0  0  0  0  0  0
   -0.5860   -0.5420   -1.0620 O   0  0  0  0  0  0  0  0  0  0  0  0
    5.5320    2.2640   -0.3350 O   0  0  0  0  0  0  0  0  0  0  0  0
    3.3060    3.2540    0.3280 O   0  0  0  0  0  0  0  0  0  0  0  0
    4.4400    2.1610    0.6600 P   0  0  0  0  0  0  0  0  0  0  0  0
   -3.2240    0.0300   -0.9550 C   0  0  0  0  0  0  0  0  0  0  0  0
   -3.1920    1.3680   -0.2130 C   0  0  0  0  0  0  0  0  0  0  0  0
   -3.8830    2.4370   -1.0620 C   0  0  2  0  0  0  0  0  0  0  0  0
   -2.6020    4.4730   -0.5040 O   0  0  0  0  0  0  0  0  0  0  0  0
   -4.6630    4.2290    0.2540 O   0  0  0  0  0  0  0  0  0  0  0  0
    2.4760    0.7310   -0.9870 H   0  0  0  0  0  0  0  0  0  0  0  0
    4.0800    0.0470   -1.3450 H   0  0  0  0  0  0  0  0  0  0  0  0
    3.5290   -1.9140    0.1380 H   0  0  0  0  0  0  0  0  0  0  0  0
    1.6940   -1.2140   -2.2240 H   0  0  0  0  0  0  0  0  0  0  0  0
    2.9430   -3.0330   -3.1390 H   0  0  0  0  0  0  0  0  0  0  0  0
    0.2850   -3.0010   -1.6420 H   0  0  0  0  0  0  0  0  0  0  0  0
    2.0510   -4.6290   -1.8260 H   0  0  0  0  0  0  0  0  0  0  0  0
    1.1890   -3.1850    1.1270 H   0  0  0  0  0  0  0  0  0  0  0  0
   -0.8910   -3.6740    1.9960 H   0  0  0  0  0  0  0  0  0  0  0  0
   -3.5160   -2.9340    3.4030 H   0  0  0  0  0  0  0  0  0  0  0  0
   -4.5200   -3.5290    2.0590 H   0  0  0  0  0  0  0  0  0  0  0  0
   -3.0700   -4.4340    2.5560 H   0  0  0  0  0  0  0  0  0  0  0  0
   -5.4270    1.2410   -1.7110 H   0  0  0  0  0  0  0  0  0  0  0  0
   -5.7600    2.0640   -0.3050 H   0  0  0  0  0  0  0  0  0  0  0  0
    2.5590    3.2440    0.9410 H   0  0  0  0  0  0  0  0  0  0  0  0
   -2.7030    0.1300   -1.9070 H   0  0  0  0  0  0  0  0  0  0  0  0
   -4.2580   -0.2620   -1.1350 H   0  0  0  0  0  0  0  0  0  0  0  0
   -3.7130    1.2670    0.7390 H   0  0  0  0  0  0  0  0  0  0  0  0
   -2.1580    1.6590   -0.0330 H   0  0  0  0  0  0  0  0  0  0  0  0
   -3.4180    2.4760   -2.0470 H   0  0  0  0  0  0  0  0  0  0  0  0
   -2.5610    5.3280   -0.0540 H   0  0  0  0  0  0  0  0  0  0  0  0
    5.0300    2.4290    2.1330 O   0  0  0  0  0  0  0  0  0  0  0  0
    5.4340    3.3010    2.2420 H   0  0  0  0  0  0  0  0  0  0  0  0
 21 23  2  0  0  0  0
  1 23  1  0  0  0  0
 22 23  1  0  0  0  0
  1  2  1  0  0  0  0
  2  3  1  0  0  0  0
  3  4  1  0  0  0  0
  3  5  1  0  0  0  0
  4  9  1  0  0  0  0
  5  6  1  0  0  0  0
  5  7  1  0  0  0  0
  7  9  1  0  0  0  0
  9 10  1  0  0  0  0
  7  8  1  0  0  0  0
 10 11  2  0  0  0  0
 11 12  1  0  0  0  0
 12 17  1  0  0  0  0
 10 15  1  0  0  0  0
 12 13  1  0  0  0  0
 15 20  2  0  0  0  0
 14 15  1  0  0  0  0
 13 14  1  0  0  0  0
 13 19  2  0  0  0  0
 14 24  1  0  0  0  0
 24 25  1  0  0  0  0
 25 26  1  0  0  0  0
 16 28  2  0  0  0  0
 16 27  1  0  0  0  0
 16 26  1  0  0  0  0
 18 26  1  0  0  0  0
  2 29  1  0  0  0  0
  2 30  1  0  0  0  0
  3 31  1  0  0  0  0
  5 32  1  0  0  0  0
  6 33  1  0  0  0  0
  7 34  1  0  0  0  0
  8 35  1  0  0  0  0
  9 36  1  0  0  0  0
 11 37  1  0  0  0  0
 17 38  1  0  0  0  0
 17 39  1  0  0  0  0
 17 40  1  0  0  0  0
 18 41  1  0  0  0  0
 18 42  1  0  0  0  0
 22 43  1  0  0  0  0
 24 44  1  0  0  0  0
 24 45  1  0  0  0  0
 25 46  1  0  0  0  0
 25 47  1  0  0  0  0
 26 48  1  0  0  0  0
 27 49  1  0  0  0  0
 23 50  1  0  0  0  0
 50 51  1  0  0  0  0
M  END
> <OPENEYE_ISO_SMILES>
Cn1cc(c(=O)n(c1=O)CC[C@H](C(=O)O)N)[C@H]2[C@@H]([C@@H]([C@H](O2)COP(=O)(O)O)O)O

> <OPENEYE_INCHI>
InChI=1S/C14H22N3O11P/c1-16-4-6(12(20)17(14(16)23)3-2-7(15)13(21)22)11-10(19)9(18)8(28-11)5-27-29(24,25)26/h4,7-11,18-19H,2-3,5,15H2,1H3,(H,21,22)(H2,24,25,26)/t7-,8-,9-,10-,11+/m1/s1

> <OPENEYE_INCHIKEY>
BVRIEBGMUPJSJF-ILAIQSSSSA-N

> <FORMULA>
C14H22N3O11P

$$$$
