G7M
  -OEChem-02242320023D

 42 44  0     1  0  0  0  0  0999 V2000
    6.0310   -0.2810   -0.1720 O   0  0  0  0  0  0  0  0  0  0  0  0
    5.1610    0.7950    0.3520 P   0  0  0  0  0  0  0  0  0  0  0  0
    4.8840    1.8750   -0.8110 O   0  0  0  0  0  0  0  0  0  0  0  0
    5.8890    1.5180    1.5930 O   0  0  0  0  0  0  0  0  0  0  0  0
    3.7630    0.1650    0.8420 O   0  0  0  0  0  0  0  0  0  0  0  0
    3.2250   -0.5590   -0.2660 C   0  0  0  0  0  0  0  0  0  0  0  0
    1.8880   -1.1870    0.1350 C   0  0  1  0  0  0  0  0  0  0  0  0
    0.9040   -0.1590    0.3830 O   0  0  0  0  0  0  0  0  0  0  0  0
    1.3080   -2.0150   -1.0330 C   0  0  1  0  0  0  0  0  0  0  0  0
    1.6030   -3.4020   -0.8580 O   0  0  0  0  0  0  0  0  0  0  0  0
   -0.2170   -1.7690   -0.9470 C   0  0  1  0  0  0  0  0  0  0  0  0
   -0.9100   -2.9980   -0.7200 O   0  0  0  0  0  0  0  0  0  0  0  0
   -0.3740   -0.8190    0.2600 C   0  0  2  0  0  0  0  0  0  0  0  0
   -1.4320    0.1620    0.0030 N   0  0  0  0  0  0  0  0  0  0  0  0
   -1.2640    1.4120   -0.5190 C   0  0  0  0  0  0  0  0  0  0  0  0
   -2.4150    2.0100   -0.6110 N   0  3  0  0  0  0  0  0  0  0  0  0
   -2.6280    3.3650   -1.1250 C   0  0  0  0  0  0  0  0  0  0  0  0
   -3.3870    1.1850   -0.1500 C   0  0  0  0  0  0  0  0  0  0  0  0
   -4.7910    1.2940   -0.0190 C   0  0  0  0  0  0  0  0  0  0  0  0
   -5.3730    2.3130   -0.3520 O   0  0  0  0  0  0  0  0  0  0  0  0
   -5.4720    0.2430    0.4900 N   0  0  0  0  0  0  0  0  0  0  0  0
   -4.8120   -0.8910    0.8590 C   0  0  0  0  0  0  0  0  0  0  0  0
   -5.5290   -1.9420    1.3730 N   0  0  0  0  0  0  0  0  0  0  0  0
   -3.5080   -1.0060    0.7380 N   0  0  0  0  0  0  0  0  0  0  0  0
   -2.7680   -0.0070    0.2420 C   0  0  0  0  0  0  0  0  0  0  0  0
   58.0990   16.0980   32.4580 H   0  0  0  0  0  0  0  0  0  0  0  0
    6.7200    1.8810    1.2570 H   0  0  0  0  0  0  0  0  0  0  0  0
    3.9210   -1.3440   -0.5600 H   0  0  0  0  0  0  0  0  0  0  0  0
    3.0700    0.1220   -1.1040 H   0  0  0  0  0  0  0  0  0  0  0  0
    2.0140   -1.8130    1.0180 H   0  0  0  0  0  0  0  0  0  0  0  0
    1.7010   -1.6590   -1.9850 H   0  0  0  0  0  0  0  0  0  0  0  0
    1.2180   -3.8670   -1.6130 H   0  0  0  0  0  0  0  0  0  0  0  0
   -0.5780   -1.2910   -1.8580 H   0  0  0  0  0  0  0  0  0  0  0  0
   -0.7230   -3.5680   -1.4780 H   0  0  0  0  0  0  0  0  0  0  0  0
   -0.5960   -1.3870    1.1640 H   0  0  0  0  0  0  0  0  0  0  0  0
   -0.3170    1.8400   -0.8120 H   0  0  0  0  0  0  0  0  0  0  0  0
   -2.8020    3.3220   -2.2000 H   0  0  0  0  0  0  0  0  0  0  0  0
   -3.4940    3.8090   -0.6340 H   0  0  0  0  0  0  0  0  0  0  0  0
   -1.7450    3.9720   -0.9240 H   0  0  0  0  0  0  0  0  0  0  0  0
   -6.4350    0.2960    0.5930 H   0  0  0  0  0  0  0  0  0  0  0  0
   -5.0730   -2.7550    1.6400 H   0  0  0  0  0  0  0  0  0  0  0  0
   -6.4920   -1.8710    1.4680 H   0  0  0  0  0  0  0  0  0  0  0  0
  1  2  1  0  0  0  0
  1 26  1  0  0  0  0
  2  3  2  0  0  0  0
  2  4  1  0  0  0  0
  2  5  1  0  0  0  0
  4 27  1  0  0  0  0
  5  6  1  0  0  0  0
  6  7  1  0  0  0  0
  6 28  1  0  0  0  0
  6 29  1  0  0  0  0
  7  8  1  0  0  0  0
  7  9  1  0  0  0  0
  7 30  1  0  0  0  0
  8 13  1  0  0  0  0
  9 10  1  0  0  0  0
  9 11  1  0  0  0  0
  9 31  1  0  0  0  0
 10 32  1  0  0  0  0
 11 12  1  0  0  0  0
 11 13  1  0  0  0  0
 11 33  1  0  0  0  0
 12 34  1  0  0  0  0
 13 14  1  0  0  0  0
 13 35  1  0  0  0  0
 14 15  1  0  0  0  0
 14 25  1  0  0  0  0
 15 16  2  0  0  0  0
 15 36  1  0  0  0  0
 16 17  1  0  0  0  0
 16 18  1  0  0  0  0
 17 37  1  0  0  0  0
 17 38  1  0  0  0  0
 17 39  1  0  0  0  0
 18 19  1  0  0  0  0
 18 25  2  0  0  0  0
 19 20  2  0  0  0  0
 19 21  1  0  0  0  0
 21 22  1  0  0  0  0
 21 40  1  0  0  0  0
 22 23  1  0  0  0  0
 22 24  2  0  0  0  0
 23 41  1  0  0  0  0
 23 42  1  0  0  0  0
 24 25  1  0  0  0  0
M  CHG  1  16   1
M  END
> <OPENEYE_ISO_SMILES>
C[n+]1cn(c2c1c(=O)[nH]c(n2)N)[C@H]3[C@@H]([C@@H]([C@H](O3)COP(=O)(O)O)O)O

> <OPENEYE_INCHI>
InChI=1S/C11H16N5O8P/c1-15-3-16(8-5(15)9(19)14-11(12)13-8)10-7(18)6(17)4(24-10)2-23-25(20,21)22/h3-4,6-7,10,17-18H,2H2,1H3,(H4-,12,13,14,19,20,21,22)/p+1/t4-,6-,7-,10-/m1/s1

> <OPENEYE_INCHIKEY>
AOKQNZVJJXPUQA-KQYNXXCUSA-O

> <FORMULA>
C11H17N5O8P+

$$$$
