HIC
  -OEChem-02242320023D

 23 23  0     1  0  0  0  0  0999 V2000
   -1.0840    1.2110   -1.1180 N   0  0  0  0  0  0  0  0  0  0  0  0
    0.0940    0.4110   -1.4750 C   0  0  2  0  0  0  0  0  0  0  0  0
   -0.0100   -0.0250   -2.9130 C   0  0  0  0  0  0  0  0  0  0  0  0
   -1.0960   -0.2040   -3.4120 O   0  0  0  0  0  0  0  0  0  0  0  0
    0.1670   -0.8210   -0.5720 C   0  0  0  0  0  0  0  0  0  0  0  0
    0.2730   -0.3840    0.8660 C   0  0  0  0  0  0  0  0  0  0  0  0
    1.2520    0.3660    1.3910 N   0  0  0  0  0  0  0  0  0  0  0  0
   -0.5950   -0.6850    1.8500 C   0  0  0  0  0  0  0  0  0  0  0  0
    1.0200    0.5470    2.6630 C   0  0  0  0  0  0  0  0  0  0  0  0
   -0.1240   -0.0890    2.9890 N   0  0  0  0  0  0  0  0  0  0  0  0
   -0.7440   -0.1390    4.3160 C   0  0  0  0  0  0  0  0  0  0  0  0
    1.1010   -0.2150   -3.6410 O   0  0  0  0  0  0  0  0  0  0  0  0
   -1.0220    1.3920   -0.1280 H   0  0  0  0  0  0  0  0  0  0  0  0
   -1.8890    0.6180   -1.2550 H   0  0  0  0  0  0  0  0  0  0  0  0
    0.9940    1.0120   -1.3430 H   0  0  0  0  0  0  0  0  0  0  0  0
    1.0420   -1.4140   -0.8370 H   0  0  0  0  0  0  0  0  0  0  0  0
   -0.7320   -1.4220   -0.7040 H   0  0  0  0  0  0  0  0  0  0  0  0
   -1.4930   -1.2770    1.7570 H   0  0  0  0  0  0  0  0  0  0  0  0
    1.6410    1.1120    3.3420 H   0  0  0  0  0  0  0  0  0  0  0  0
   -1.4330    0.6980    4.4260 H   0  0  0  0  0  0  0  0  0  0  0  0
   -1.2900   -1.0760    4.4270 H   0  0  0  0  0  0  0  0  0  0  0  0
    0.0290   -0.0760    5.0810 H   0  0  0  0  0  0  0  0  0  0  0  0
    1.0330   -0.4950   -4.5640 H   0  0  0  0  0  0  0  0  0  0  0  0
  1  2  1  0  0  0  0
  1 13  1  0  0  0  0
  1 14  1  0  0  0  0
  2  3  1  0  0  0  0
  2  5  1  0  0  0  0
  2 15  1  0  0  0  0
  3  4  2  0  0  0  0
  3 12  1  0  0  0  0
  5  6  1  0  0  0  0
  5 16  1  0  0  0  0
  5 17  1  0  0  0  0
  6  7  1  0  0  0  0
  6  8  2  0  0  0  0
  7  9  2  0  0  0  0
  8 10  1  0  0  0  0
  8 18  1  0  0  0  0
  9 10  1  0  0  0  0
  9 19  1  0  0  0  0
 10 11  1  0  0  0  0
 11 20  1  0  0  0  0
 11 21  1  0  0  0  0
 11 22  1  0  0  0  0
 12 23  1  0  0  0  0
M  END
> <OPENEYE_ISO_SMILES>
Cn1cc(nc1)C[C@@H](C(=O)O)N

> <OPENEYE_INCHI>
InChI=1S/C7H11N3O2/c1-10-3-5(9-4-10)2-6(8)7(11)12/h3-4,6H,2,8H2,1H3,(H,11,12)/t6-/m0/s1

> <OPENEYE_INCHIKEY>
BRMWTNUJHUMWMS-LURJTMIESA-N

> <FORMULA>
C7H11N3O2

$$$$
