HY3
  -OEChem-02242320023D

 18 18  0     1  0  0  0  0  0999 V2000
   -1.5330   -0.1740    0.0000 C   0  0  0  0  0  0  0  0  0  0  0  0
   -1.9110   -1.0760   -0.7100 O   0  0  0  0  0  0  0  0  0  0  0  0
    0.5200   -1.4790    0.3450 N   0  0  0  0  0  0  0  0  0  0  0  0
   -0.1040   -0.1370    0.4770 C   0  0  1  0  0  0  0  0  0  0  0  0
    0.7430    0.7780   -0.4330 C   0  0  2  0  0  0  0  0  0  0  0  0
    2.1140    0.0780   -0.5390 C   0  0  0  0  0  0  0  0  0  0  0  0
    1.9790   -1.2010    0.3150 C   0  0  0  0  0  0  0  0  0  0  0  0
    0.8900    2.0690    0.1610 O   0  0  0  0  0  0  0  0  0  0  0  0
   -2.3860    0.7990    0.3590 O   0  0  0  0  0  0  0  0  0  0  0  0
    0.2800   -2.0680    1.1280 H   0  0  0  0  0  0  0  0  0  0  0  0
   -0.0580    0.2040    1.5110 H   0  0  0  0  0  0  0  0  0  0  0  0
    0.2840    0.8630   -1.4180 H   0  0  0  0  0  0  0  0  0  0  0  0
    2.3280   -0.1800   -1.5760 H   0  0  0  0  0  0  0  0  0  0  0  0
    2.8990    0.7200   -0.1380 H   0  0  0  0  0  0  0  0  0  0  0  0
    2.3530   -1.0250    1.3240 H   0  0  0  0  0  0  0  0  0  0  0  0
    2.5140   -2.0280   -0.1510 H   0  0  0  0  0  0  0  0  0  0  0  0
    1.4140    2.6880   -0.3660 H   0  0  0  0  0  0  0  0  0  0  0  0
   -3.2910    0.7350    0.0260 H   0  0  0  0  0  0  0  0  0  0  0  0
  1  2  2  0  0  0  0
  1  4  1  0  0  0  0
  1  9  1  0  0  0  0
  3  4  1  0  0  0  0
  3  7  1  0  0  0  0
  3 10  1  0  0  0  0
  4  5  1  0  0  0  0
  4 11  1  0  0  0  0
  5  6  1  0  0  0  0
  5  8  1  0  0  0  0
  5 12  1  0  0  0  0
  6  7  1  0  0  0  0
  6 13  1  0  0  0  0
  6 14  1  0  0  0  0
  7 15  1  0  0  0  0
  7 16  1  0  0  0  0
  8 17  1  0  0  0  0
  9 18  1  0  0  0  0
M  END
> <OPENEYE_ISO_SMILES>
C1CN[C@@H]([C@H]1O)C(=O)O

> <OPENEYE_INCHI>
InChI=1S/C5H9NO3/c7-3-1-2-6-4(3)5(8)9/h3-4,6-7H,1-2H2,(H,8,9)/t3-,4-/m0/s1

> <OPENEYE_INCHIKEY>
BJBUEDPLEOHJGE-IMJSIDKUSA-N

> <FORMULA>
C5H9NO3

$$$$
