M3L
  -OEChem-02242320033D

 34 33  0     1  0  0  0  0  0999 V2000
    2.6730   -1.8060   -0.2370 N   0  0  0  0  0  0  0  0  0  0  0  0
    2.5880   -0.3650   -0.5090 C   0  0  1  0  0  0  0  0  0  0  0  0
    1.3220    0.2020    0.1360 C   0  0  0  0  0  0  0  0  0  0  0  0
    0.0900   -0.4100   -0.5350 C   0  0  0  0  0  0  0  0  0  0  0  0
   -1.1760    0.1570    0.1100 C   0  0  0  0  0  0  0  0  0  0  0  0
   -2.4080   -0.4550   -0.5600 C   0  0  0  0  0  0  0  0  0  0  0  0
   -3.6230    0.0900    0.0590 N   0  3  0  0  0  0  0  0  0  0  0  0
    3.7980    0.3270    0.0650 C   0  0  0  0  0  0  0  0  0  0  0  0
    4.4470   -0.2110    0.9300 O   0  0  0  0  0  0  0  0  0  0  0  0
    4.1530    1.5410   -0.3840 O   0  0  0  0  0  0  0  0  0  0  0  0
   -3.6480    1.5490   -0.1110 C   0  0  0  0  0  0  0  0  0  0  0  0
   -3.6320   -0.2370    1.4910 C   0  0  0  0  0  0  0  0  0  0  0  0
   -4.8060   -0.4980   -0.5850 C   0  0  0  0  0  0  0  0  0  0  0  0
    2.7040   -1.9100    0.7660 H   0  0  0  0  0  0  0  0  0  0  0  0
    1.8020   -2.2110   -0.5440 H   0  0  0  0  0  0  0  0  0  0  0  0
    2.5530   -0.2000   -1.5860 H   0  0  0  0  0  0  0  0  0  0  0  0
    1.3040    1.2850    0.0100 H   0  0  0  0  0  0  0  0  0  0  0  0
    1.3150   -0.0400    1.1980 H   0  0  0  0  0  0  0  0  0  0  0  0
    0.1090   -1.4920   -0.4090 H   0  0  0  0  0  0  0  0  0  0  0  0
    0.0970   -0.1670   -1.5980 H   0  0  0  0  0  0  0  0  0  0  0  0
   -1.1940    1.2400   -0.0160 H   0  0  0  0  0  0  0  0  0  0  0  0
   -1.1820   -0.0850    1.1730 H   0  0  0  0  0  0  0  0  0  0  0  0
   -2.3890   -1.5370   -0.4350 H   0  0  0  0  0  0  0  0  0  0  0  0
   -2.4010   -0.2120   -1.6230 H   0  0  0  0  0  0  0  0  0  0  0  0
    4.9290    1.9850   -0.0160 H   0  0  0  0  0  0  0  0  0  0  0  0
   -2.7710    1.9850    0.3670 H   0  0  0  0  0  0  0  0  0  0  0  0
   -3.6410    1.7910   -1.1730 H   0  0  0  0  0  0  0  0  0  0  0  0
   -4.5500    1.9530    0.3490 H   0  0  0  0  0  0  0  0  0  0  0  0
   -4.5340    0.1670    1.9500 H   0  0  0  0  0  0  0  0  0  0  0  0
   -3.6140   -1.3200    1.6160 H   0  0  0  0  0  0  0  0  0  0  0  0
   -2.7550    0.1990    1.9680 H   0  0  0  0  0  0  0  0  0  0  0  0
   -4.7990   -0.2550   -1.6480 H   0  0  0  0  0  0  0  0  0  0  0  0
   -4.7880   -1.5810   -0.4590 H   0  0  0  0  0  0  0  0  0  0  0  0
   -5.7080   -0.0940   -0.1260 H   0  0  0  0  0  0  0  0  0  0  0  0
  1  2  1  0  0  0  0
  1 14  1  0  0  0  0
  1 15  1  0  0  0  0
  2  3  1  0  0  0  0
  2  8  1  0  0  0  0
  2 16  1  0  0  0  0
  3  4  1  0  0  0  0
  3 17  1  0  0  0  0
  3 18  1  0  0  0  0
  4  5  1  0  0  0  0
  4 19  1  0  0  0  0
  4 20  1  0  0  0  0
  5  6  1  0  0  0  0
  5 21  1  0  0  0  0
  5 22  1  0  0  0  0
  6  7  1  0  0  0  0
  6 23  1  0  0  0  0
  6 24  1  0  0  0  0
  7 11  1  0  0  0  0
  7 12  1  0  0  0  0
  7 13  1  0  0  0  0
  8  9  2  0  0  0  0
  8 10  1  0  0  0  0
 10 25  1  0  0  0  0
 11 26  1  0  0  0  0
 11 27  1  0  0  0  0
 11 28  1  0  0  0  0
 12 29  1  0  0  0  0
 12 30  1  0  0  0  0
 12 31  1  0  0  0  0
 13 32  1  0  0  0  0
 13 33  1  0  0  0  0
 13 34  1  0  0  0  0
M  CHG  1   7   1
M  END
> <OPENEYE_ISO_SMILES>
C[N+](C)(C)CCCC[C@@H](C(=O)O)N

> <OPENEYE_INCHI>
InChI=1S/C9H20N2O2/c1-11(2,3)7-5-4-6-8(10)9(12)13/h8H,4-7,10H2,1-3H3/p+1/t8-/m0/s1

> <OPENEYE_INCHIKEY>
MXNRLFUSFKVQSK-QMMMGPOBSA-O

> <FORMULA>
C9H21N2O2+

$$$$
