MA6
  -OEChem-02242320033D

 43 45  0     1  0  0  0  0  0999 V2000
   -1.2740   -1.2220    4.5590 C   0  0  0  0  0  0  0  0  0  0  0  0
   -0.4110   -0.3310    2.6240 C   0  0  0  0  0  0  0  0  0  0  0  0
    0.6100    0.2770    3.3720 C   0  0  0  0  0  0  0  0  0  0  0  0
    1.2910   -0.1300   -5.0980 P   0  0  0  0  0  0  0  0  0  0  0  0
    2.4520   -1.1350   -5.5830 O   0  0  0  0  0  0  0  0  0  0  0  0
    0.1880    0.0170   -6.2620 O   0  0  0  0  0  0  0  0  0  0  0  0
    1.8780    1.1960   -4.8030 O   0  0  0  0  0  0  0  0  0  0  0  0
    0.5940   -0.7160   -3.7700 O   0  0  0  0  0  0  0  0  0  0  0  0
   -0.4200    0.2150   -3.3910 C   0  0  0  0  0  0  0  0  0  0  0  0
   -1.1250   -0.2840   -2.1290 C   0  0  1  0  0  0  0  0  0  0  0  0
   -0.1870   -0.3850   -1.0350 O   0  0  0  0  0  0  0  0  0  0  0  0
   -0.9940   -0.3700    0.1610 C   0  0  1  0  0  0  0  0  0  0  0  0
   -0.1850    0.0210    1.3170 N   0  0  0  0  0  0  0  0  0  0  0  0
   -1.3250   -1.0630    3.2540 N   0  0  0  0  0  0  0  0  0  0  0  0
   -0.3300   -0.6750    5.3030 N   0  0  0  0  0  0  0  0  0  0  0  0
    0.6260    0.0720    4.7620 C   0  0  0  0  0  0  0  0  0  0  0  0
    1.6110    0.6410    5.5500 N   0  0  0  0  0  0  0  0  0  0  0  0
    1.3290    0.2380    6.9340 C   0  0  0  0  0  0  0  0  0  0  0  0
    2.8770   -0.0000    5.1720 C   0  0  0  0  0  0  0  0  0  0  0  0
    1.3970    0.9490    2.4990 N   0  0  0  0  0  0  0  0  0  0  0  0
    0.9300    0.8030    1.2930 C   0  0  0  0  0  0  0  0  0  0  0  0
   -2.0900    0.6830   -0.1100 C   0  0  2  0  0  0  0  0  0  0  0  0
   -3.3400    0.2710    0.4440 O   0  0  0  0  0  0  0  0  0  0  0  0
   -2.1760    0.7430   -1.6540 C   0  0  2  0  0  0  0  0  0  0  0  0
   -3.4810    0.3670   -2.0980 O   0  0  0  0  0  0  0  0  0  0  0  0
   -2.0320   -1.8220    5.0400 H   0  0  0  0  0  0  0  0  0  0  0  0
    2.8420   -0.7470   -6.3790 H   0  0  0  0  0  0  0  0  0  0  0  0
   -0.1680   -0.8660   -6.4230 H   0  0  0  0  0  0  0  0  0  0  0  0
   -1.1460    0.3090   -4.1990 H   0  0  0  0  0  0  0  0  0  0  0  0
    0.0320    1.1860   -3.1940 H   0  0  0  0  0  0  0  0  0  0  0  0
   -1.5960   -1.2500   -2.3150 H   0  0  0  0  0  0  0  0  0  0  0  0
   -1.4430   -1.3500    0.3270 H   0  0  0  0  0  0  0  0  0  0  0  0
    2.0830    0.6640    7.5970 H   0  0  0  0  0  0  0  0  0  0  0  0
    0.3430    0.6000    7.2250 H   0  0  0  0  0  0  0  0  0  0  0  0
    1.3540   -0.8480    7.0080 H   0  0  0  0  0  0  0  0  0  0  0  0
    3.1300    0.2700    4.1470 H   0  0  0  0  0  0  0  0  0  0  0  0
    3.6680    0.3350    5.8430 H   0  0  0  0  0  0  0  0  0  0  0  0
    2.7720   -1.0820    5.2470 H   0  0  0  0  0  0  0  0  0  0  0  0
    1.3630    1.2370    0.4040 H   0  0  0  0  0  0  0  0  0  0  0  0
   -1.7940    1.6520    0.2920 H   0  0  0  0  0  0  0  0  0  0  0  0
   -3.9920    0.9370    0.1890 H   0  0  0  0  0  0  0  0  0  0  0  0
   -1.9240    1.7400   -2.0130 H   0  0  0  0  0  0  0  0  0  0  0  0
   -4.0920    1.0420   -1.7730 H   0  0  0  0  0  0  0  0  0  0  0  0
  1 14  2  0  0  0  0
  1 15  1  0  0  0  0
  1 26  1  0  0  0  0
  2  3  2  0  0  0  0
  2 13  1  0  0  0  0
  2 14  1  0  0  0  0
  3 16  1  0  0  0  0
  3 20  1  0  0  0  0
  4  5  1  0  0  0  0
  4  6  1  0  0  0  0
  4  7  2  0  0  0  0
  4  8  1  0  0  0  0
  5 27  1  0  0  0  0
  6 28  1  0  0  0  0
  8  9  1  0  0  0  0
  9 10  1  0  0  0  0
  9 29  1  0  0  0  0
  9 30  1  0  0  0  0
 10 11  1  0  0  0  0
 10 24  1  0  0  0  0
 10 31  1  0  0  0  0
 11 12  1  0  0  0  0
 12 13  1  0  0  0  0
 12 22  1  0  0  0  0
 12 32  1  0  0  0  0
 13 21  1  0  0  0  0
 15 16  2  0  0  0  0
 16 17  1  0  0  0  0
 17 18  1  0  0  0  0
 17 19  1  0  0  0  0
 18 33  1  0  0  0  0
 18 34  1  0  0  0  0
 18 35  1  0  0  0  0
 19 36  1  0  0  0  0
 19 37  1  0  0  0  0
 19 38  1  0  0  0  0
 20 21  2  0  0  0  0
 21 39  1  0  0  0  0
 22 23  1  0  0  0  0
 22 24  1  0  0  0  0
 22 40  1  0  0  0  0
 23 41  1  0  0  0  0
 24 25  1  0  0  0  0
 24 42  1  0  0  0  0
 25 43  1  0  0  0  0
M  END
> <OPENEYE_ISO_SMILES>
CN(C)c1c2c(ncn1)n(cn2)[C@H]3[C@@H]([C@@H]([C@H](O3)COP(=O)(O)O)O)O

> <OPENEYE_INCHI>
InChI=1S/C12H18N5O7P/c1-16(2)10-7-11(14-4-13-10)17(5-15-7)12-9(19)8(18)6(24-12)3-23-25(20,21)22/h4-6,8-9,12,18-19H,3H2,1-2H3,(H2,20,21,22)/t6-,8-,9-,12-/m1/s1

> <OPENEYE_INCHIKEY>
OWRDTHWSVNWFAZ-WOUKDFQISA-N

> <FORMULA>
C12H18N5O7P

$$$$
