MLZ
  -OEChem-02242320033D

 27 26  0     1  0  0  0  0  0999 V2000
    0.3060   -2.1260   -2.6010 N   0  0  0  0  0  0  0  0  0  0  0  0
    0.1640   -0.6960   -2.6950 C   0  0  1  0  0  0  0  0  0  0  0  0
    1.1720    0.0500   -1.8190 C   0  0  0  0  0  0  0  0  0  0  0  0
    1.0290   -0.2100   -0.3140 C   0  0  0  0  0  0  0  0  0  0  0  0
    2.0180    0.5950    0.5360 C   0  0  0  0  0  0  0  0  0  0  0  0
    1.9090    0.2860    2.0310 C   0  0  0  0  0  0  0  0  0  0  0  0
    2.8850    1.0340    2.8140 N   0  0  0  0  0  0  0  0  0  0  0  0
    2.7950    0.6880    4.2250 C   0  0  0  0  0  0  0  0  0  0  0  0
    0.3730   -0.3380   -4.1530 C   0  0  0  0  0  0  0  0  0  0  0  0
    1.1590   -0.8910   -4.9110 O   0  0  0  0  0  0  0  0  0  0  0  0
   -0.3890    0.7230   -4.5290 O   0  0  0  0  0  0  0  0  0  0  0  0
   -0.4190   -2.7150   -2.9740 H   0  0  0  0  0  0  0  0  0  0  0  0
    1.0130   -2.5090   -1.9940 H   0  0  0  0  0  0  0  0  0  0  0  0
   -0.8710   -0.4730   -2.4180 H   0  0  0  0  0  0  0  0  0  0  0  0
    2.1920   -0.2300   -2.1170 H   0  0  0  0  0  0  0  0  0  0  0  0
    1.0900    1.1290   -2.0040 H   0  0  0  0  0  0  0  0  0  0  0  0
    1.1970   -1.2800   -0.1390 H   0  0  0  0  0  0  0  0  0  0  0  0
    0.0000    0.0000    0.0000 H   0  0  0  0  0  0  0  0  0  0  0  0
    1.8660    1.6690    0.3770 H   0  0  0  0  0  0  0  0  0  0  0  0
    3.0410    0.3680    0.2100 H   0  0  0  0  0  0  0  0  0  0  0  0
    0.9020    0.5220    2.3900 H   0  0  0  0  0  0  0  0  0  0  0  0
    2.0710   -0.7860    2.1900 H   0  0  0  0  0  0  0  0  0  0  0  0
    2.7100    2.0320    2.7010 H   0  0  0  0  0  0  0  0  0  0  0  0
    2.2370    1.4560    4.7660 H   0  0  0  0  0  0  0  0  0  0  0  0
    3.7960    0.6080    4.6590 H   0  0  0  0  0  0  0  0  0  0  0  0
    2.2830   -0.2710    4.3470 H   0  0  0  0  0  0  0  0  0  0  0  0
   -0.2660    1.0200   -5.4560 H   0  0  0  0  0  0  0  0  0  0  0  0
  1  2  1  0  0  0  0
  1 12  1  0  0  0  0
  1 13  1  0  0  0  0
  2  3  1  0  0  0  0
  2  9  1  0  0  0  0
  2 14  1  0  0  0  0
  3  4  1  0  0  0  0
  3 15  1  0  0  0  0
  3 16  1  0  0  0  0
  4  5  1  0  0  0  0
  4 17  1  0  0  0  0
  4 18  1  0  0  0  0
  5  6  1  0  0  0  0
  5 19  1  0  0  0  0
  5 20  1  0  0  0  0
  6  7  1  0  0  0  0
  6 21  1  0  0  0  0
  6 22  1  0  0  0  0
  7  8  1  0  0  0  0
  7 23  1  0  0  0  0
  8 24  1  0  0  0  0
  8 25  1  0  0  0  0
  8 26  1  0  0  0  0
  9 10  2  0  0  0  0
  9 11  1  0  0  0  0
 11 27  1  0  0  0  0
M  END
> <OPENEYE_ISO_SMILES>
CNCCCC[C@@H](C(=O)O)N

> <OPENEYE_INCHI>
InChI=1S/C7H16N2O2/c1-9-5-3-2-4-6(8)7(10)11/h6,9H,2-5,8H2,1H3,(H,10,11)/t6-/m0/s1

> <OPENEYE_INCHIKEY>
PQNASZJZHFPQLE-LURJTMIESA-N

> <FORMULA>
C7H16N2O2

$$$$
