NMM
  -OEChem-02242320033D

 29 28  0     1  0  0  0  0  0999 V2000
    5.9180    0.0000   -0.0160 C   0  0  0  0  0  0  0  0  0  0  0  0
    4.6000    0.5340   -0.3660 N   0  0  0  0  0  0  0  0  0  0  0  0
    3.4620   -0.1210    0.0420 C   0  0  0  0  0  0  0  0  0  0  0  0
    3.5560   -1.2170    0.7410 N   0  0  0  0  0  0  0  0  0  0  0  0
    2.2250    0.3810   -0.2860 N   0  0  0  0  0  0  0  0  0  0  0  0
    1.0120   -0.3170    0.1490 C   0  0  0  0  0  0  0  0  0  0  0  0
   -0.2200    0.4450   -0.3450 C   0  0  0  0  0  0  0  0  0  0  0  0
   -1.4860   -0.2840    0.1090 C   0  0  0  0  0  0  0  0  0  0  0  0
   -2.7180    0.4770   -0.3850 C   0  0  1  0  0  0  0  0  0  0  0  0
   -3.9610   -0.3030   -0.0440 C   0  0  0  0  0  0  0  0  0  0  0  0
   -4.6210    0.0030    0.9200 O   0  0  0  0  0  0  0  0  0  0  0  0
   -4.3350   -1.3390   -0.8120 O   0  0  0  0  0  0  0  0  0  0  0  0
   -2.7720    1.7940    0.2640 N   0  0  0  0  0  0  0  0  0  0  0  0
    6.0150   -0.0460    1.0690 H   0  0  0  0  0  0  0  0  0  0  0  0
    6.0260   -1.0020   -0.4330 H   0  0  0  0  0  0  0  0  0  0  0  0
    6.6930    0.6490   -0.4230 H   0  0  0  0  0  0  0  0  0  0  0  0
    4.5300    1.3500   -0.8860 H   0  0  0  0  0  0  0  0  0  0  0  0
    2.7530   -1.6790    1.0290 H   0  0  0  0  0  0  0  0  0  0  0  0
    2.1550    1.1970   -0.8060 H   0  0  0  0  0  0  0  0  0  0  0  0
    1.0050   -1.3260   -0.2640 H   0  0  0  0  0  0  0  0  0  0  0  0
    0.9940   -0.3700    1.2370 H   0  0  0  0  0  0  0  0  0  0  0  0
   -0.2130    1.4530    0.0680 H   0  0  0  0  0  0  0  0  0  0  0  0
   -0.2020    0.4970   -1.4340 H   0  0  0  0  0  0  0  0  0  0  0  0
   -1.4930   -1.2930   -0.3040 H   0  0  0  0  0  0  0  0  0  0  0  0
   -1.5040   -0.3370    1.1970 H   0  0  0  0  0  0  0  0  0  0  0  0
   -2.6550    0.6080   -1.4660 H   0  0  0  0  0  0  0  0  0  0  0  0
   -5.1320   -1.8400   -0.5940 H   0  0  0  0  0  0  0  0  0  0  0  0
   -3.6480    2.2150   -0.0090 H   0  0  0  0  0  0  0  0  0  0  0  0
   -2.8290    1.6250    1.2580 H   0  0  0  0  0  0  0  0  0  0  0  0
  1  2  1  0  0  0  0
  1 14  1  0  0  0  0
  1 15  1  0  0  0  0
  1 16  1  0  0  0  0
  2  3  1  0  0  0  0
  2 17  1  0  0  0  0
  3  4  2  0  0  0  0
  3  5  1  0  0  0  0
  4 18  1  0  0  0  0
  5  6  1  0  0  0  0
  5 19  1  0  0  0  0
  6  7  1  0  0  0  0
  6 20  1  0  0  0  0
  6 21  1  0  0  0  0
  7  8  1  0  0  0  0
  7 22  1  0  0  0  0
  7 23  1  0  0  0  0
  8  9  1  0  0  0  0
  8 24  1  0  0  0  0
  8 25  1  0  0  0  0
  9 10  1  0  0  0  0
  9 13  1  0  0  0  0
  9 26  1  0  0  0  0
 10 11  2  0  0  0  0
 10 12  1  0  0  0  0
 12 27  1  0  0  0  0
 13 28  1  0  0  0  0
 13 29  1  0  0  0  0
M  END
> <OPENEYE_ISO_SMILES>
[H]/N=C(/NC)\NCCC[C@@H](C(=O)O)N

> <OPENEYE_INCHI>
InChI=1S/C7H16N4O2/c1-10-7(9)11-4-2-3-5(8)6(12)13/h5H,2-4,8H2,1H3,(H,12,13)(H3,9,10,11)/t5-/m0/s1

> <OPENEYE_INCHIKEY>
NTNWOCRCBQPEKQ-YFKPBYRVSA-N

> <FORMULA>
C7H16N4O2

$$$$
