OMC
  -OEChem-02242320033D

 38 39  0     1  0  0  0  0  0999 V2000
   -0.2150   -0.5530   -2.3080 N   0  0  0  0  0  0  0  0  0  0  0  0
   -0.9530    0.5680   -2.2300 C   0  0  0  0  0  0  0  0  0  0  0  0
   -1.8490    0.8680   -3.1690 N   0  0  0  0  0  0  0  0  0  0  0  0
   -2.0450    0.0590   -4.2020 C   0  0  0  0  0  0  0  0  0  0  0  0
   -1.2910   -1.1270   -4.3100 C   0  0  0  0  0  0  0  0  0  0  0  0
   -0.3800   -1.4150   -3.3500 C   0  0  0  0  0  0  0  0  0  0  0  0
   -0.7920    1.3290   -1.2900 O   0  0  0  0  0  0  0  0  0  0  0  0
   -2.9770    0.3760   -5.1620 N   0  0  0  0  0  0  0  0  0  0  0  0
    0.7670   -0.8530   -1.2630 C   0  0  1  0  0  0  0  0  0  0  0  0
    1.7730    0.3150   -1.1020 C   0  0  2  0  0  0  0  0  0  0  0  0
    2.8590    0.1830   -2.0220 O   0  0  0  0  0  0  0  0  0  0  0  0
    3.3480    1.5010   -2.2750 C   0  0  0  0  0  0  0  0  0  0  0  0
    2.2580    0.1270    0.3550 C   0  0  1  0  0  0  0  0  0  0  0  0
    1.1510   -0.7150    1.0160 C   0  0  2  0  0  0  0  0  0  0  0  0
    0.1280   -0.9270    0.0290 O   0  0  0  0  0  0  0  0  0  0  0  0
    3.5050   -0.5700    0.3810 O   0  0  0  0  0  0  0  0  0  0  0  0
    0.5720    0.0350    2.2170 C   0  0  0  0  0  0  0  0  0  0  0  0
   -0.4520   -0.7530    2.8230 O   0  0  0  0  0  0  0  0  0  0  0  0
   -1.0130    0.0920    4.0730 P   0  0  0  0  0  0  0  0  0  0  0  0
   -1.5580    1.3810    3.5900 O   0  0  0  0  0  0  0  0  0  0  0  0
   -2.1780   -0.7410    4.8060 O   0  0  0  0  0  0  0  0  0  0  0  0
    0.1830    0.3710    5.1130 O   0  0  0  0  0  0  0  0  0  0  0  0
   -1.4380   -1.7960   -5.1450 H   0  0  0  0  0  0  0  0  0  0  0  0
    0.2090   -2.3180   -3.4110 H   0  0  0  0  0  0  0  0  0  0  0  0
   -3.4940    1.1940   -5.0850 H   0  0  0  0  0  0  0  0  0  0  0  0
   -3.1170   -0.2160   -5.9170 H   0  0  0  0  0  0  0  0  0  0  0  0
    1.2910   -1.7820   -1.4860 H   0  0  0  0  0  0  0  0  0  0  0  0
    1.2750    1.2760   -1.2260 H   0  0  0  0  0  0  0  0  0  0  0  0
    4.1820    1.4510   -2.9750 H   0  0  0  0  0  0  0  0  0  0  0  0
    2.5510    2.1100   -2.7020 H   0  0  0  0  0  0  0  0  0  0  0  0
    3.6860    1.9490   -1.3400 H   0  0  0  0  0  0  0  0  0  0  0  0
    2.3520    1.0920    0.8530 H   0  0  0  0  0  0  0  0  0  0  0  0
    1.5580   -1.6730    1.3390 H   0  0  0  0  0  0  0  0  0  0  0  0
    3.7570   -0.6570    1.3100 H   0  0  0  0  0  0  0  0  0  0  0  0
    1.3630    0.2230    2.9430 H   0  0  0  0  0  0  0  0  0  0  0  0
    0.1520    0.9840    1.8840 H   0  0  0  0  0  0  0  0  0  0  0  0
   -2.4860   -0.2000    5.5460 H   0  0  0  0  0  0  0  0  0  0  0  0
    0.5090   -0.4910    5.4020 H   0  0  0  0  0  0  0  0  0  0  0  0
  1  2  1  0  0  0  0
  1  6  1  0  0  0  0
  1  9  1  0  0  0  0
  2  3  1  0  0  0  0
  2  7  2  0  0  0  0
  3  4  2  0  0  0  0
  4  5  1  0  0  0  0
  4  8  1  0  0  0  0
  5  6  2  0  0  0  0
  5 23  1  0  0  0  0
  6 24  1  0  0  0  0
  8 25  1  0  0  0  0
  8 26  1  0  0  0  0
  9 10  1  0  0  0  0
  9 15  1  0  0  0  0
  9 27  1  0  0  0  0
 10 11  1  0  0  0  0
 10 13  1  0  0  0  0
 10 28  1  0  0  0  0
 11 12  1  0  0  0  0
 12 29  1  0  0  0  0
 12 30  1  0  0  0  0
 12 31  1  0  0  0  0
 13 14  1  0  0  0  0
 13 16  1  0  0  0  0
 13 32  1  0  0  0  0
 14 15  1  0  0  0  0
 14 17  1  0  0  0  0
 14 33  1  0  0  0  0
 16 34  1  0  0  0  0
 17 18  1  0  0  0  0
 17 35  1  0  0  0  0
 17 36  1  0  0  0  0
 18 19  1  0  0  0  0
 19 20  2  0  0  0  0
 19 21  1  0  0  0  0
 19 22  1  0  0  0  0
 21 37  1  0  0  0  0
 22 38  1  0  0  0  0
M  END
> <OPENEYE_ISO_SMILES>
CO[C@@H]1[C@@H]([C@H](O[C@H]1n2ccc(nc2=O)N)COP(=O)(O)O)O

> <OPENEYE_INCHI>
InChI=1S/C10H16N3O8P/c1-19-8-7(14)5(4-20-22(16,17)18)21-9(8)13-3-2-6(11)12-10(13)15/h2-3,5,7-9,14H,4H2,1H3,(H2,11,12,15)(H2,16,17,18)/t5-,7-,8-,9-/m1/s1

> <OPENEYE_INCHIKEY>
USRXKJOTSNCJMA-ZOQUXTDFSA-N

> <FORMULA>
C10H16N3O8P

$$$$
