OMG
  -OEChem-02242320033D

 41 43  0     1  0  0  0  0  0999 V2000
   -0.9790   -0.0950    5.0180 P   0  0  0  0  0  0  0  0  0  0  0  0
   -1.5070    1.2520    4.7110 O   0  0  0  0  0  0  0  0  0  0  0  0
   -2.1390   -0.9850    5.6930 O   0  0  0  0  0  0  0  0  0  0  0  0
    0.2590    0.0320    6.0380 O   0  0  0  0  0  0  0  0  0  0  0  0
   -0.4840   -0.8010    3.6580 O   0  0  0  0  0  0  0  0  0  0  0  0
    0.5390    0.0310    3.1100 C   0  0  0  0  0  0  0  0  0  0  0  0
    1.0550   -0.5850    1.8080 C   0  0  1  0  0  0  0  0  0  0  0  0
   -0.0070   -0.6560    0.8420 O   0  0  0  0  0  0  0  0  0  0  0  0
    2.1600    0.3050    1.2080 C   0  0  1  0  0  0  0  0  0  0  0  0
    3.3880   -0.4170    1.1050 O   0  0  0  0  0  0  0  0  0  0  0  0
    1.6290    0.6740   -0.1970 C   0  0  1  0  0  0  0  0  0  0  0  0
    2.6780    0.6280   -1.1670 O   0  0  0  0  0  0  0  0  0  0  0  0
    3.1930    1.9560   -1.2810 C   0  0  0  0  0  0  0  0  0  0  0  0
    0.5880   -0.4440   -0.4550 C   0  0  2  0  0  0  0  0  0  0  0  0
   -0.4220   -0.0010   -1.4200 N   0  0  0  0  0  0  0  0  0  0  0  0
   -1.5570    0.7000   -1.1350 C   0  0  0  0  0  0  0  0  0  0  0  0
   -2.2230    0.9240   -2.2300 N   0  0  0  0  0  0  0  0  0  0  0  0
   -1.5590    0.3800   -3.2780 C   0  0  0  0  0  0  0  0  0  0  0  0
   -1.8020    0.3130   -4.6700 C   0  0  0  0  0  0  0  0  0  0  0  0
   -2.7990    0.8200   -5.1560 O   0  0  0  0  0  0  0  0  0  0  0  0
   -0.9020   -0.3270   -5.4490 N   0  0  0  0  0  0  0  0  0  0  0  0
    0.2080   -0.8900   -4.8950 C   0  0  0  0  0  0  0  0  0  0  0  0
    1.1050   -1.5350   -5.7100 N   0  0  0  0  0  0  0  0  0  0  0  0
    0.4450   -0.8340   -3.6040 N   0  0  0  0  0  0  0  0  0  0  0  0
   -0.3970   -0.2130   -2.7720 C   0  0  0  0  0  0  0  0  0  0  0  0
   -2.4060   -0.5280    6.5020 H   0  0  0  0  0  0  0  0  0  0  0  0
    0.5730   -0.8660    6.2110 H   0  0  0  0  0  0  0  0  0  0  0  0
    1.3590    0.1150    3.8220 H   0  0  0  0  0  0  0  0  0  0  0  0
    0.1310    1.0210    2.9060 H   0  0  0  0  0  0  0  0  0  0  0  0
    1.4480   -1.5830    2.0010 H   0  0  0  0  0  0  0  0  0  0  0  0
    2.2960    1.2030    1.8120 H   0  0  0  0  0  0  0  0  0  0  0  0
    3.6700   -0.6190    2.0080 H   0  0  0  0  0  0  0  0  0  0  0  0
    1.1520    1.6550   -0.1880 H   0  0  0  0  0  0  0  0  0  0  0  0
    4.0000    1.9710   -2.0140 H   0  0  0  0  0  0  0  0  0  0  0  0
    2.3970    2.6280   -1.6040 H   0  0  0  0  0  0  0  0  0  0  0  0
    3.5740    2.2830   -0.3140 H   0  0  0  0  0  0  0  0  0  0  0  0
    1.0790   -1.3510   -0.8050 H   0  0  0  0  0  0  0  0  0  0  0  0
   -1.8560    1.0230   -0.1490 H   0  0  0  0  0  0  0  0  0  0  0  0
   -1.0470   -0.3870   -6.4060 H   0  0  0  0  0  0  0  0  0  0  0  0
    1.9000   -1.9410   -5.3310 H   0  0  0  0  0  0  0  0  0  0  0  0
    0.9430   -1.5850   -6.6650 H   0  0  0  0  0  0  0  0  0  0  0  0
  1  2  2  0  0  0  0
  1  3  1  0  0  0  0
  1  4  1  0  0  0  0
  1  5  1  0  0  0  0
  3 26  1  0  0  0  0
  4 27  1  0  0  0  0
  5  6  1  0  0  0  0
  6  7  1  0  0  0  0
  6 28  1  0  0  0  0
  6 29  1  0  0  0  0
  7  8  1  0  0  0  0
  7  9  1  0  0  0  0
  7 30  1  0  0  0  0
  8 14  1  0  0  0  0
  9 10  1  0  0  0  0
  9 11  1  0  0  0  0
  9 31  1  0  0  0  0
 10 32  1  0  0  0  0
 11 12  1  0  0  0  0
 11 14  1  0  0  0  0
 11 33  1  0  0  0  0
 12 13  1  0  0  0  0
 13 34  1  0  0  0  0
 13 35  1  0  0  0  0
 13 36  1  0  0  0  0
 14 15  1  0  0  0  0
 14 37  1  0  0  0  0
 15 16  1  0  0  0  0
 15 25  1  0  0  0  0
 16 17  2  0  0  0  0
 16 38  1  0  0  0  0
 17 18  1  0  0  0  0
 18 19  1  0  0  0  0
 18 25  2  0  0  0  0
 19 20  2  0  0  0  0
 19 21  1  0  0  0  0
 21 22  1  0  0  0  0
 21 39  1  0  0  0  0
 22 23  1  0  0  0  0
 22 24  2  0  0  0  0
 23 40  1  0  0  0  0
 23 41  1  0  0  0  0
 24 25  1  0  0  0  0
M  END
> <OPENEYE_ISO_SMILES>
CO[C@@H]1[C@@H]([C@H](O[C@H]1n2cnc3c2nc([nH]c3=O)N)COP(=O)(O)O)O

> <OPENEYE_INCHI>
InChI=1S/C11H16N5O8P/c1-22-7-6(17)4(2-23-25(19,20)21)24-10(7)16-3-13-5-8(16)14-11(12)15-9(5)18/h3-4,6-7,10,17H,2H2,1H3,(H2,19,20,21)(H3,12,14,15,18)/t4-,6-,7-,10-/m1/s1

> <OPENEYE_INCHIKEY>
YPMKZCOIEXUDSS-KQYNXXCUSA-N

> <FORMULA>
C11H16N5O8P

$$$$
