OMU
  -OEChem-02242320033D

 37 38  0     1  0  0  0  0  0999 V2000
   -0.2260   -0.5500   -2.3030 N   0  0  0  0  0  0  0  0  0  0  0  0
   -0.9610    0.5730   -2.2180 C   0  0  0  0  0  0  0  0  0  0  0  0
   -1.8710    0.8780   -3.1620 N   0  0  0  0  0  0  0  0  0  0  0  0
   -2.0680    0.0500   -4.2080 C   0  0  0  0  0  0  0  0  0  0  0  0
   -1.3060   -1.1370   -4.3070 C   0  0  0  0  0  0  0  0  0  0  0  0
   -0.3960   -1.4160   -3.3490 C   0  0  0  0  0  0  0  0  0  0  0  0
   -0.7940    1.3290   -1.2800 O   0  0  0  0  0  0  0  0  0  0  0  0
   -2.8950    0.3230   -5.0600 O   0  0  0  0  0  0  0  0  0  0  0  0
    0.7600   -0.8520   -1.2640 C   0  0  1  0  0  0  0  0  0  0  0  0
    1.7680    0.3130   -1.1060 C   0  0  2  0  0  0  0  0  0  0  0  0
    2.8490    0.1810   -2.0310 O   0  0  0  0  0  0  0  0  0  0  0  0
    3.3400    1.4990   -2.2840 C   0  0  0  0  0  0  0  0  0  0  0  0
    2.2600    0.1230    0.3480 C   0  0  1  0  0  0  0  0  0  0  0  0
    1.1550   -0.7180    1.0140 C   0  0  2  0  0  0  0  0  0  0  0  0
    3.5060   -0.5760    0.3680 O   0  0  0  0  0  0  0  0  0  0  0  0
    0.1270   -0.9270    0.0310 O   0  0  0  0  0  0  0  0  0  0  0  0
    0.5830    0.0320    2.2180 C   0  0  0  0  0  0  0  0  0  0  0  0
   -0.4400   -0.7560    2.8290 O   0  0  0  0  0  0  0  0  0  0  0  0
   -0.9940    0.0890    4.0810 P   0  0  0  0  0  0  0  0  0  0  0  0
   -1.5390    1.3790    3.6030 O   0  0  0  0  0  0  0  0  0  0  0  0
   -2.1570   -0.7430    4.8190 O   0  0  0  0  0  0  0  0  0  0  0  0
    0.2070    0.3650    5.1160 O   0  0  0  0  0  0  0  0  0  0  0  0
   -2.3900    1.6940   -3.0870 H   0  0  0  0  0  0  0  0  0  0  0  0
   -1.4490   -1.8120   -5.1380 H   0  0  0  0  0  0  0  0  0  0  0  0
    0.1940   -2.3180   -3.4080 H   0  0  0  0  0  0  0  0  0  0  0  0
    1.2810   -1.7820   -1.4900 H   0  0  0  0  0  0  0  0  0  0  0  0
    1.2720    1.2760   -1.2260 H   0  0  0  0  0  0  0  0  0  0  0  0
    4.1700    1.4490   -2.9890 H   0  0  0  0  0  0  0  0  0  0  0  0
    2.5420    2.1090   -2.7070 H   0  0  0  0  0  0  0  0  0  0  0  0
    3.6820    1.9450   -1.3510 H   0  0  0  0  0  0  0  0  0  0  0  0
    2.3580    1.0880    0.8470 H   0  0  0  0  0  0  0  0  0  0  0  0
    1.5610   -1.6770    1.3340 H   0  0  0  0  0  0  0  0  0  0  0  0
    3.7620   -0.6640    1.2960 H   0  0  0  0  0  0  0  0  0  0  0  0
    1.3770    0.2180    2.9410 H   0  0  0  0  0  0  0  0  0  0  0  0
    0.1620    0.9810    1.8880 H   0  0  0  0  0  0  0  0  0  0  0  0
   -2.4610   -0.2030    5.5620 H   0  0  0  0  0  0  0  0  0  0  0  0
    0.5330   -0.4980    5.4030 H   0  0  0  0  0  0  0  0  0  0  0  0
  1  2  1  0  0  0  0
  1  6  1  0  0  0  0
  1  9  1  0  0  0  0
  2  3  1  0  0  0  0
  2  7  2  0  0  0  0
  3  4  1  0  0  0  0
  3 23  1  0  0  0  0
  4  5  1  0  0  0  0
  4  8  2  0  0  0  0
  5  6  2  0  0  0  0
  5 24  1  0  0  0  0
  6 25  1  0  0  0  0
  9 10  1  0  0  0  0
  9 16  1  0  0  0  0
  9 26  1  0  0  0  0
 10 11  1  0  0  0  0
 10 13  1  0  0  0  0
 10 27  1  0  0  0  0
 11 12  1  0  0  0  0
 12 28  1  0  0  0  0
 12 29  1  0  0  0  0
 12 30  1  0  0  0  0
 13 14  1  0  0  0  0
 13 15  1  0  0  0  0
 13 31  1  0  0  0  0
 14 16  1  0  0  0  0
 14 17  1  0  0  0  0
 14 32  1  0  0  0  0
 15 33  1  0  0  0  0
 17 18  1  0  0  0  0
 17 34  1  0  0  0  0
 17 35  1  0  0  0  0
 18 19  1  0  0  0  0
 19 20  2  0  0  0  0
 19 21  1  0  0  0  0
 19 22  1  0  0  0  0
 21 36  1  0  0  0  0
 22 37  1  0  0  0  0
M  END
> <OPENEYE_ISO_SMILES>
CO[C@@H]1[C@@H]([C@H](O[C@H]1n2ccc(=O)[nH]c2=O)COP(=O)(O)O)O

> <OPENEYE_INCHI>
InChI=1S/C10H15N2O9P/c1-19-8-7(14)5(4-20-22(16,17)18)21-9(8)12-3-2-6(13)11-10(12)15/h2-3,5,7-9,14H,4H2,1H3,(H,11,13,15)(H2,16,17,18)/t5-,7-,8-,9-/m1/s1

> <OPENEYE_INCHIKEY>
FHMMECZNEPGJSJ-ZOQUXTDFSA-N

> <FORMULA>
C10H15N2O9P

$$$$
