PSU
  -OEChem-02242320033D

 34 35  0     1  0  0  0  0  0999 V2000
   -0.8700    1.1010    4.5170 N   0  0  0  0  0  0  0  0  0  0  0  0
   -1.5870   -0.0350    4.5670 C   0  0  0  0  0  0  0  0  0  0  0  0
   -1.5100   -0.9460    3.5800 N   0  0  0  0  0  0  0  0  0  0  0  0
   -0.7100   -0.7280    2.5160 C   0  0  0  0  0  0  0  0  0  0  0  0
    0.0530    0.4610    2.4530 C   0  0  0  0  0  0  0  0  0  0  0  0
   -0.0430    1.3570    3.4580 C   0  0  0  0  0  0  0  0  0  0  0  0
   -2.3160   -0.2430    5.5180 O   0  0  0  0  0  0  0  0  0  0  0  0
   -0.6390   -1.5520    1.6210 O   0  0  0  0  0  0  0  0  0  0  0  0
    0.9590    0.7260    1.2780 C   0  0  1  0  0  0  0  0  0  0  0  0
    2.0310   -0.3800    1.1650 C   0  0  2  0  0  0  0  0  0  0  0  0
    3.2610    0.0480    1.7510 O   0  0  0  0  0  0  0  0  0  0  0  0
    2.1990   -0.5850   -0.3570 C   0  0  1  0  0  0  0  0  0  0  0  0
    1.2080    0.4180   -0.9860 C   0  0  2  0  0  0  0  0  0  0  0  0
    3.5370   -0.2860   -0.7580 O   0  0  0  0  0  0  0  0  0  0  0  0
    0.2170    0.6490    0.0420 O   0  0  0  0  0  0  0  0  0  0  0  0
    0.5530   -0.1780   -2.2330 C   0  0  0  0  0  0  0  0  0  0  0  0
   -0.4090    0.7410   -2.7510 O   0  0  0  0  0  0  0  0  0  0  0  0
   -1.0560    0.0520   -4.0550 P   0  0  0  0  0  0  0  0  0  0  0  0
   -1.7010   -1.2220   -3.6700 O   0  0  0  0  0  0  0  0  0  0  0  0
   -2.1560    1.0390   -4.6940 O   0  0  0  0  0  0  0  0  0  0  0  0
    0.0990   -0.2360   -5.1380 O   0  0  0  0  0  0  0  0  0  0  0  0
   -0.9400    1.7450    5.2390 H   0  0  0  0  0  0  0  0  0  0  0  0
   -2.0330   -1.7610    3.6310 H   0  0  0  0  0  0  0  0  0  0  0  0
    0.5290    2.2730    3.4260 H   0  0  0  0  0  0  0  0  0  0  0  0
    1.4320    1.7030    1.3770 H   0  0  0  0  0  0  0  0  0  0  0  0
    1.6830   -1.2980    1.6380 H   0  0  0  0  0  0  0  0  0  0  0  0
    3.9050   -0.6560    1.5960 H   0  0  0  0  0  0  0  0  0  0  0  0
    1.9360   -1.6060   -0.6350 H   0  0  0  0  0  0  0  0  0  0  0  0
    1.7200    1.3480   -1.2350 H   0  0  0  0  0  0  0  0  0  0  0  0
    4.1110   -0.9240   -0.3120 H   0  0  0  0  0  0  0  0  0  0  0  0
    1.3150   -0.3690   -2.9870 H   0  0  0  0  0  0  0  0  0  0  0  0
    0.0580   -1.1130   -1.9710 H   0  0  0  0  0  0  0  0  0  0  0  0
   -2.5170    0.5890   -5.4700 H   0  0  0  0  0  0  0  0  0  0  0  0
    0.4930    0.6170   -5.3610 H   0  0  0  0  0  0  0  0  0  0  0  0
  1  2  1  0  0  0  0
  1  6  1  0  0  0  0
  1 22  1  0  0  0  0
  2  3  1  0  0  0  0
  2  7  2  0  0  0  0
  3  4  1  0  0  0  0
  3 23  1  0  0  0  0
  4  5  1  0  0  0  0
  4  8  2  0  0  0  0
  5  6  2  0  0  0  0
  5  9  1  0  0  0  0
  6 24  1  0  0  0  0
  9 10  1  0  0  0  0
  9 15  1  0  0  0  0
  9 25  1  0  0  0  0
 10 11  1  0  0  0  0
 10 12  1  0  0  0  0
 10 26  1  0  0  0  0
 11 27  1  0  0  0  0
 12 13  1  0  0  0  0
 12 14  1  0  0  0  0
 12 28  1  0  0  0  0
 13 15  1  0  0  0  0
 13 16  1  0  0  0  0
 13 29  1  0  0  0  0
 14 30  1  0  0  0  0
 16 17  1  0  0  0  0
 16 31  1  0  0  0  0
 16 32  1  0  0  0  0
 17 18  1  0  0  0  0
 18 19  2  0  0  0  0
 18 20  1  0  0  0  0
 18 21  1  0  0  0  0
 20 33  1  0  0  0  0
 21 34  1  0  0  0  0
M  END
> <OPENEYE_ISO_SMILES>
c1c(c(=O)[nH]c(=O)[nH]1)[C@H]2[C@@H]([C@@H]([C@H](O2)COP(=O)(O)O)O)O

> <OPENEYE_INCHI>
InChI=1S/C9H13N2O9P/c12-5-4(2-19-21(16,17)18)20-7(6(5)13)3-1-10-9(15)11-8(3)14/h1,4-7,12-13H,2H2,(H2,16,17,18)(H2,10,11,14,15)/t4-,5-,6-,7+/m1/s1

> <OPENEYE_INCHIKEY>
MOBMOJGXNHLLIR-GBNDHIKLSA-N

> <FORMULA>
C9H13N2O9P

$$$$
