SAC
  -OEChem-02242320043D

 19 18  0     1  0  0  0  0  0999 V2000
    0.2090    0.1640    2.0170 C   0  0  0  0  0  0  0  0  0  0  0  0
    0.3020   -0.5290    3.3510 C   0  0  0  0  0  0  0  0  0  0  0  0
   -0.1390    1.3240    1.9600 O   0  0  0  0  0  0  0  0  0  0  0  0
    0.5150   -0.5040    0.8870 N   0  0  0  0  0  0  0  0  0  0  0  0
    0.4250    0.1700   -0.4090 C   0  0  2  0  0  0  0  0  0  0  0  0
   -0.9590   -0.0120   -0.9750 C   0  0  0  0  0  0  0  0  0  0  0  0
   -1.4340    0.8340   -1.6940 O   0  0  0  0  0  0  0  0  0  0  0  0
   -1.6650   -1.1150   -0.6810 O   0  0  0  0  0  0  0  0  0  0  0  0
    1.4520   -0.4320   -1.3700 C   0  0  0  0  0  0  0  0  0  0  0  0
    1.3640    0.2250   -2.6350 O   0  0  0  0  0  0  0  0  0  0  0  0
    0.0190    0.1640    4.1420 H   0  0  0  0  0  0  0  0  0  0  0  0
   -0.3700   -1.3870    3.3630 H   0  0  0  0  0  0  0  0  0  0  0  0
    1.3250   -0.8680    3.5150 H   0  0  0  0  0  0  0  0  0  0  0  0
    0.7940   -1.4320    0.9330 H   0  0  0  0  0  0  0  0  0  0  0  0
    0.6280    1.2330   -0.2810 H   0  0  0  0  0  0  0  0  0  0  0  0
   -2.5530   -1.2320   -1.0440 H   0  0  0  0  0  0  0  0  0  0  0  0
    2.4530   -0.3000   -0.9600 H   0  0  0  0  0  0  0  0  0  0  0  0
    1.2490   -1.4950   -1.4980 H   0  0  0  0  0  0  0  0  0  0  0  0
    2.0260   -0.1830   -3.2090 H   0  0  0  0  0  0  0  0  0  0  0  0
  1  2  1  0  0  0  0
  1  3  2  0  0  0  0
  1  4  1  0  0  0  0
  2 11  1  0  0  0  0
  2 12  1  0  0  0  0
  2 13  1  0  0  0  0
  4  5  1  0  0  0  0
  4 14  1  0  0  0  0
  5  6  1  0  0  0  0
  5  9  1  0  0  0  0
  5 15  1  0  0  0  0
  6  7  2  0  0  0  0
  6  8  1  0  0  0  0
  8 16  1  0  0  0  0
  9 10  1  0  0  0  0
  9 17  1  0  0  0  0
  9 18  1  0  0  0  0
 10 19  1  0  0  0  0
M  END
> <OPENEYE_ISO_SMILES>
CC(=O)N[C@@H](CO)C(=O)O

> <OPENEYE_INCHI>
InChI=1S/C5H9NO4/c1-3(8)6-4(2-7)5(9)10/h4,7H,2H2,1H3,(H,6,8)(H,9,10)/t4-/m0/s1

> <OPENEYE_INCHIKEY>
JJIHLJJYMXLCOY-BYPYZUCNSA-N

> <FORMULA>
C5H9NO4

$$$$
