SPD
  -OEChem-02242320043D

 29 28  0     0  0  0  0  0  0999 V2000
   -0.3550   -0.0070    5.5200 N   0  0  0  0  0  0  0  0  0  0  0  0
    0.4950   -0.0300    4.3230 C   0  0  0  0  0  0  0  0  0  0  0  0
   -0.3830   -0.0070    3.0710 C   0  0  0  0  0  0  0  0  0  0  0  0
    0.5020   -0.0310    1.8240 C   0  0  0  0  0  0  0  0  0  0  0  0
   -0.3770   -0.0080    0.5730 C   0  0  0  0  0  0  0  0  0  0  0  0
    0.4740   -0.0310   -0.6230 N   0  0  0  0  0  0  0  0  0  0  0  0
   -0.4270   -0.0070   -1.7830 C   0  0  0  0  0  0  0  0  0  0  0  0
    0.3970   -0.0300   -3.0710 C   0  0  0  0  0  0  0  0  0  0  0  0
   -0.5410   -0.0050   -4.2790 C   0  0  0  0  0  0  0  0  0  0  0  0
    0.2500   -0.0270   -5.5160 N   0  0  0  0  0  0  0  0  0  0  0  0
   -0.8160    0.8900    5.5300 H   0  0  0  0  0  0  0  0  0  0  0  0
    0.2630   -0.0230    6.3160 H   0  0  0  0  0  0  0  0  0  0  0  0
    1.1480    0.8420    4.3240 H   0  0  0  0  0  0  0  0  0  0  0  0
    1.1000   -0.9370    4.3250 H   0  0  0  0  0  0  0  0  0  0  0  0
   -1.0370   -0.8790    3.0700 H   0  0  0  0  0  0  0  0  0  0  0  0
   -0.9880    0.8990    3.0690 H   0  0  0  0  0  0  0  0  0  0  0  0
    1.1550    0.8410    1.8260 H   0  0  0  0  0  0  0  0  0  0  0  0
    1.1070   -0.9380    1.8260 H   0  0  0  0  0  0  0  0  0  0  0  0
   -1.0300   -0.8800    0.5710 H   0  0  0  0  0  0  0  0  0  0  0  0
   -0.9820    0.8980    0.5710 H   0  0  0  0  0  0  0  0  0  0  0  0
    0.9830    0.8390   -0.6340 H   0  0  0  0  0  0  0  0  0  0  0  0
   -1.0800   -0.8790   -1.7540 H   0  0  0  0  0  0  0  0  0  0  0  0
   -1.0310    0.8990   -1.7540 H   0  0  0  0  0  0  0  0  0  0  0  0
    1.0500    0.8420   -3.1000 H   0  0  0  0  0  0  0  0  0  0  0  0
    1.0010   -0.9360   -3.1000 H   0  0  0  0  0  0  0  0  0  0  0  0
   -1.1940   -0.8770   -4.2500 H   0  0  0  0  0  0  0  0  0  0  0  0
   -1.1450    0.9010   -4.2500 H   0  0  0  0  0  0  0  0  0  0  0  0
   -0.4060   -0.0090   -6.2810 H   0  0  0  0  0  0  0  0  0  0  0  0
    0.7590    0.8430   -5.5500 H   0  0  0  0  0  0  0  0  0  0  0  0
  1  2  1  0  0  0  0
  1 11  1  0  0  0  0
  1 12  1  0  0  0  0
  2  3  1  0  0  0  0
  2 13  1  0  0  0  0
  2 14  1  0  0  0  0
  3  4  1  0  0  0  0
  3 15  1  0  0  0  0
  3 16  1  0  0  0  0
  4  5  1  0  0  0  0
  4 17  1  0  0  0  0
  4 18  1  0  0  0  0
  5  6  1  0  0  0  0
  5 19  1  0  0  0  0
  5 20  1  0  0  0  0
  6  7  1  0  0  0  0
  6 21  1  0  0  0  0
  7  8  1  0  0  0  0
  7 22  1  0  0  0  0
  7 23  1  0  0  0  0
  8  9  1  0  0  0  0
  8 24  1  0  0  0  0
  8 25  1  0  0  0  0
  9 10  1  0  0  0  0
  9 26  1  0  0  0  0
  9 27  1  0  0  0  0
 10 28  1  0  0  0  0
 10 29  1  0  0  0  0
M  END
> <OPENEYE_ISO_SMILES>
C(CCNCCCN)CN

> <OPENEYE_INCHI>
InChI=1S/C7H19N3/c8-4-1-2-6-10-7-3-5-9/h10H,1-9H2

> <OPENEYE_INCHIKEY>
ATHGHQPFGPMSJY-UHFFFAOYSA-N

> <FORMULA>
C7H19N3

$$$$
