UR3
  -OEChem-02242320043D

 37 38  0     1  0  0  0  0  0999 V2000
   -4.4150    1.0390   -0.1330 P   0  0  0  0  0  0  0  0  0  0  0  0
   -5.4890    0.1020    0.2640 O   0  0  0  0  0  0  0  0  0  0  0  0
   -4.0870    2.0300    1.0930 O   0  0  0  0  0  0  0  0  0  0  0  0
   -3.0920    0.2070   -0.5180 O   0  0  0  0  0  0  0  0  0  0  0  0
   -2.4800   -0.7350    0.3650 C   0  0  0  0  0  0  0  0  0  0  0  0
   -1.2490   -1.3430   -0.3110 C   0  0  1  0  0  0  0  0  0  0  0  0
   -0.2420   -0.3330   -0.4930 O   0  0  0  0  0  0  0  0  0  0  0  0
    1.0380   -0.9820   -0.3380 C   0  0  1  0  0  0  0  0  0  0  0  0
    2.0750   -0.0040   -0.0020 N   0  0  0  0  0  0  0  0  0  0  0  0
    1.8950    0.8360    1.0640 C   0  0  0  0  0  0  0  0  0  0  0  0
    3.1980    0.0580   -0.7400 C   0  0  0  0  0  0  0  0  0  0  0  0
    3.3390   -0.7010   -1.6800 O   0  0  0  0  0  0  0  0  0  0  0  0
    4.1670    0.9470   -0.4540 N   0  0  0  0  0  0  0  0  0  0  0  0
    5.3790    0.9940   -1.2740 C   0  0  0  0  0  0  0  0  0  0  0  0
    4.0250    1.7960    0.5840 C   0  0  0  0  0  0  0  0  0  0  0  0
    4.9000    2.6020    0.8430 O   0  0  0  0  0  0  0  0  0  0  0  0
    2.8510    1.7380    1.3730 C   0  0  0  0  0  0  0  0  0  0  0  0
    0.8070   -1.9600    0.8420 C   0  0  2  0  0  0  0  0  0  0  0  0
    1.7220   -3.0560    0.7830 O   0  0  0  0  0  0  0  0  0  0  0  0
   -0.6440   -2.4370    0.5900 C   0  0  2  0  0  0  0  0  0  0  0  0
   -0.6460   -3.6970   -0.0840 O   0  0  0  0  0  0  0  0  0  0  0  0
   -4.8970    1.9010   -1.4050 O   0  0  0  0  0  0  0  0  0  0  0  0
   -3.3900    2.6730    0.9040 H   0  0  0  0  0  0  0  0  0  0  0  0
   -2.1780   -0.2290    1.2820 H   0  0  0  0  0  0  0  0  0  0  0  0
   -3.1910   -1.5250    0.6030 H   0  0  0  0  0  0  0  0  0  0  0  0
   -1.5280   -1.7660   -1.2760 H   0  0  0  0  0  0  0  0  0  0  0  0
    1.3050   -1.5270   -1.2440 H   0  0  0  0  0  0  0  0  0  0  0  0
    0.9930    0.7770    1.6540 H   0  0  0  0  0  0  0  0  0  0  0  0
    5.2340    1.6920   -2.0990 H   0  0  0  0  0  0  0  0  0  0  0  0
    6.2190    1.3250   -0.6630 H   0  0  0  0  0  0  0  0  0  0  0  0
    5.5880    0.0010   -1.6710 H   0  0  0  0  0  0  0  0  0  0  0  0
    2.7210    2.4070    2.2120 H   0  0  0  0  0  0  0  0  0  0  0  0
    0.8860   -1.4420    1.7980 H   0  0  0  0  0  0  0  0  0  0  0  0
    1.6170   -3.6960    1.5010 H   0  0  0  0  0  0  0  0  0  0  0  0
   -1.1920   -2.5040    1.5290 H   0  0  0  0  0  0  0  0  0  0  0  0
   -0.2750   -4.4220    0.4370 H   0  0  0  0  0  0  0  0  0  0  0  0
   -5.6910    2.4290   -1.2440 H   0  0  0  0  0  0  0  0  0  0  0  0
  1  2  2  0  0  0  0
  1  3  1  0  0  0  0
  1  4  1  0  0  0  0
  1 22  1  0  0  0  0
  3 23  1  0  0  0  0
  4  5  1  0  0  0  0
  5  6  1  0  0  0  0
  5 24  1  0  0  0  0
  5 25  1  0  0  0  0
  6  7  1  0  0  0  0
  6 20  1  0  0  0  0
  6 26  1  0  0  0  0
  7  8  1  0  0  0  0
  8  9  1  0  0  0  0
  8 18  1  0  0  0  0
  8 27  1  0  0  0  0
  9 10  1  0  0  0  0
  9 11  1  0  0  0  0
 10 17  2  0  0  0  0
 10 28  1  0  0  0  0
 11 12  2  0  0  0  0
 11 13  1  0  0  0  0
 13 14  1  0  0  0  0
 13 15  1  0  0  0  0
 14 29  1  0  0  0  0
 14 30  1  0  0  0  0
 14 31  1  0  0  0  0
 15 16  2  0  0  0  0
 15 17  1  0  0  0  0
 17 32  1  0  0  0  0
 18 19  1  0  0  0  0
 18 20  1  0  0  0  0
 18 33  1  0  0  0  0
 19 34  1  0  0  0  0
 20 21  1  0  0  0  0
 20 35  1  0  0  0  0
 21 36  1  0  0  0  0
 22 37  1  0  0  0  0
M  END
> <OPENEYE_ISO_SMILES>
Cn1c(=O)ccn(c1=O)[C@H]2[C@@H]([C@@H]([C@H](O2)COP(=O)(O)O)O)O

> <OPENEYE_INCHI>
InChI=1S/C10H15N2O9P/c1-11-6(13)2-3-12(10(11)16)9-8(15)7(14)5(21-9)4-20-22(17,18)19/h2-3,5,7-9,14-15H,4H2,1H3,(H2,17,18,19)/t5-,7-,8-,9-/m1/s1

> <OPENEYE_INCHIKEY>
KZSHODFDDQCIMT-ZOQUXTDFSA-N

> <FORMULA>
C10H15N2O9P

$$$$
