UY1
  -OEChem-02242320043D

 37 38  0     1  0  0  0  0  0999 V2000
    1.2790   -0.6820   -0.8790 C   0  0  2  0  0  0  0  0  0  0  0  0
    4.3360    2.0670    0.1140 C   0  0  0  0  0  0  0  0  0  0  0  0
    1.3400   -1.8940    0.0700 C   0  0  1  0  0  0  0  0  0  0  0  0
   -0.0520   -1.9170    0.7460 C   0  0  1  0  0  0  0  0  0  0  0  0
    2.3650    0.9660    0.7150 C   0  0  0  0  0  0  0  0  0  0  0  0
   -0.9110   -1.0970   -0.2500 C   0  0  1  0  0  0  0  0  0  0  0  0
    2.3720    0.2970   -0.5320 C   0  0  0  0  0  0  0  0  0  0  0  0
   -2.1190   -0.4820    0.4590 C   0  0  0  0  0  0  0  0  0  0  0  0
    3.3700    0.5460   -1.4060 C   0  0  0  0  0  0  0  0  0  0  0  0
    2.2750   -4.1010    0.0520 C   0  0  0  0  0  0  0  0  0  0  0  0
    4.3540    1.4370   -1.0750 N   0  0  0  0  0  0  0  0  0  0  0  0
    3.3530    1.8370    1.0040 N   0  0  0  0  0  0  0  0  0  0  0  0
    5.2230    2.8520    0.3900 O   0  0  0  0  0  0  0  0  0  0  0  0
    1.5580   -3.0980   -0.6690 O   0  0  0  0  0  0  0  0  0  0  0  0
   -0.5420   -3.2550    0.8600 O   0  0  0  0  0  0  0  0  0  0  0  0
    1.4740    0.7580    1.5200 O   0  0  0  0  0  0  0  0  0  0  0  0
   -0.0070   -0.0650   -0.7030 O   0  0  0  0  0  0  0  0  0  0  0  0
   -2.9530    0.1700   -0.5010 O   0  0  0  0  0  0  0  0  0  0  0  0
   -5.2020   -0.0020    0.6330 O   0  0  0  0  0  0  0  0  0  0  0  0
   -3.9770    2.1960    0.8260 O   0  0  0  0  0  0  0  0  0  0  0  0
   -4.3180    0.9280   -0.1050 P   0  0  0  0  0  0  0  0  0  0  0  0
    1.3930   -1.0130   -1.9110 H   0  0  0  0  0  0  0  0  0  0  0  0
    2.1250   -1.7570    0.8140 H   0  0  0  0  0  0  0  0  0  0  0  0
   -0.0190   -1.4330    1.7220 H   0  0  0  0  0  0  0  0  0  0  0  0
   -1.2300   -1.7200   -1.0850 H   0  0  0  0  0  0  0  0  0  0  0  0
   -2.6850   -1.2670    0.9590 H   0  0  0  0  0  0  0  0  0  0  0  0
   -1.7770    0.2450    1.1960 H   0  0  0  0  0  0  0  0  0  0  0  0
    3.3920    0.0440   -2.3620 H   0  0  0  0  0  0  0  0  0  0  0  0
    1.7180   -4.3710    0.9500 H   0  0  0  0  0  0  0  0  0  0  0  0
    2.3980   -4.9830   -0.5770 H   0  0  0  0  0  0  0  0  0  0  0  0
    3.2540   -3.7160    0.3350 H   0  0  0  0  0  0  0  0  0  0  0  0
    3.3550    2.3000    1.8560 H   0  0  0  0  0  0  0  0  0  0  0  0
   -1.4120   -3.3210    1.2770 H   0  0  0  0  0  0  0  0  0  0  0  0
   -3.3990    2.8490    0.4050 H   0  0  0  0  0  0  0  0  0  0  0  0
   -5.0610    1.4280   -1.4430 O   0  0  0  0  0  0  0  0  0  0  0  0
   -5.8920    1.8940   -1.2800 H   0  0  0  0  0  0  0  0  0  0  0  0
    5.0720    1.6160   -1.7030 H   0  0  0  0  0  0  0  0  0  0  0  0
 19 21  2  0  0  0  0
 18 21  1  0  0  0  0
 20 21  1  0  0  0  0
  8 18  1  0  0  0  0
  6  8  1  0  0  0  0
  9 11  1  0  0  0  0
  2 11  1  0  0  0  0
  7  9  2  0  0  0  0
  4  6  1  0  0  0  0
  6 17  1  0  0  0  0
  2 13  2  0  0  0  0
  4 15  1  0  0  0  0
  3  4  1  0  0  0  0
  1 17  1  0  0  0  0
  2 12  1  0  0  0  0
  1  7  1  0  0  0  0
  5  7  1  0  0  0  0
  1  3  1  0  0  0  0
  3 14  1  0  0  0  0
  5 12  1  0  0  0  0
  5 16  2  0  0  0  0
 10 14  1  0  0  0  0
  1 22  1  0  0  0  0
  3 23  1  0  0  0  0
  4 24  1  0  0  0  0
  6 25  1  0  0  0  0
  8 26  1  0  0  0  0
  8 27  1  0  0  0  0
  9 28  1  0  0  0  0
 10 29  1  0  0  0  0
 10 30  1  0  0  0  0
 10 31  1  0  0  0  0
 12 32  1  0  0  0  0
 15 33  1  0  0  0  0
 20 34  1  0  0  0  0
 21 35  1  0  0  0  0
 35 36  1  0  0  0  0
 11 37  1  0  0  0  0
M  END
> <OPENEYE_ISO_SMILES>
CO[C@H]1[C@@H](O[C@@H]([C@H]1O)COP(=O)(O)O)c2c[nH]c(=O)[nH]c2=O

> <OPENEYE_INCHI>
InChI=1S/C10H15N2O9P/c1-19-8-6(13)5(3-20-22(16,17)18)21-7(8)4-2-11-10(15)12-9(4)14/h2,5-8,13H,3H2,1H3,(H2,16,17,18)(H2,11,12,14,15)/t5-,6-,7+,8-/m1/s1

> <OPENEYE_INCHIKEY>
VLDJGRCZRDFORR-OOJXKGFFSA-N

> <FORMULA>
C10H15N2O9P

$$$$
