V5N
  -OEChem-02242320043D

 21 21  0     1  0  0  0  0  0999 V2000
   -0.6850   -1.1740    1.1920 N   0  0  0  0  0  0  0  0  0  0  0  0
   -1.0040    0.1430    0.6270 C   0  0  2  0  0  0  0  0  0  0  0  0
   -2.4590    0.1830    0.2350 C   0  0  0  0  0  0  0  0  0  0  0  0
   -3.0660   -0.8470    0.0630 O   0  0  0  0  0  0  0  0  0  0  0  0
   -0.1360    0.3920   -0.6090 C   0  0  1  0  0  0  0  0  0  0  0  0
    1.3170    0.2310   -0.2430 C   0  0  0  0  0  0  0  0  0  0  0  0
    2.0130   -0.9210   -0.2070 C   0  0  0  0  0  0  0  0  0  0  0  0
    2.1840    1.2290    0.1120 N   0  0  0  0  0  0  0  0  0  0  0  0
    3.3790    0.6510    0.3570 C   0  0  0  0  0  0  0  0  0  0  0  0
    3.2700   -0.6350    0.1640 N   0  0  0  0  0  0  0  0  0  0  0  0
   -0.4780   -0.5490   -1.6280 O   0  0  0  0  0  0  0  0  0  0  0  0
   -0.8590   -1.9080    0.5210 H   0  0  0  0  0  0  0  0  0  0  0  0
    0.2680   -1.2050    1.5220 H   0  0  0  0  0  0  0  0  0  0  0  0
   -0.8070    0.9150    1.3710 H   0  0  0  0  0  0  0  0  0  0  0  0
   -0.3090    1.4040   -0.9760 H   0  0  0  0  0  0  0  0  0  0  0  0
    1.6270   -1.9030   -0.4370 H   0  0  0  0  0  0  0  0  0  0  0  0
    1.9780    2.1750    0.1780 H   0  0  0  0  0  0  0  0  0  0  0  0
    4.2780    1.1680    0.6600 H   0  0  0  0  0  0  0  0  0  0  0  0
   -0.3490   -1.4720   -1.3700 H   0  0  0  0  0  0  0  0  0  0  0  0
   -3.0800    1.3620    0.0780 O   0  0  0  0  0  0  0  0  0  0  0  0
   -4.0130    1.3370   -0.1740 H   0  0  0  0  0  0  0  0  0  0  0  0
  8  9  1  0  0  0  0
  6  8  1  0  0  0  0
  9 10  2  0  0  0  0
  5  6  1  0  0  0  0
  5 11  1  0  0  0  0
  2  5  1  0  0  0  0
  6  7  2  0  0  0  0
  2  3  1  0  0  0  0
  3  4  2  0  0  0  0
  1  2  1  0  0  0  0
  7 10  1  0  0  0  0
  1 12  1  0  0  0  0
  1 13  1  0  0  0  0
  2 14  1  0  0  0  0
  5 15  1  0  0  0  0
  7 16  1  0  0  0  0
  8 17  1  0  0  0  0
  9 18  1  0  0  0  0
 11 19  1  0  0  0  0
  3 20  1  0  0  0  0
 20 21  1  0  0  0  0
M  END
> <OPENEYE_ISO_SMILES>
c1c([nH]cn1)[C@H]([C@@H](C(=O)O)N)O

> <OPENEYE_INCHI>
InChI=1S/C6H9N3O3/c7-4(6(11)12)5(10)3-1-8-2-9-3/h1-2,4-5,10H,7H2,(H,8,9)(H,11,12)/t4-,5+/m0/s1

> <OPENEYE_INCHIKEY>
KQMBIBBJWXGSEI-CRCLSJGQSA-N

> <FORMULA>
C6H9N3O3

$$$$
