WJD
  -OEChem-02242320043D

 23 23  0     0  0  0  0  0  0999 V2000
   -1.4870    0.9060    0.3890 C   0  0  0  0  0  0  0  0  0  0  0  0
   -2.7780    1.3790    0.2530 C   0  0  0  0  0  0  0  0  0  0  0  0
   -3.7990    0.5140   -0.0970 C   0  0  0  0  0  0  0  0  0  0  0  0
   -3.5310   -0.8250   -0.3120 C   0  0  0  0  0  0  0  0  0  0  0  0
   -2.2430   -1.3040   -0.1780 C   0  0  0  0  0  0  0  0  0  0  0  0
    0.0930   -0.9190    0.3040 N   0  0  0  0  0  0  0  0  0  0  0  0
    4.8410    0.0460    0.0100 C   0  0  0  0  0  0  0  0  0  0  0  0
    3.4700    0.3960   -0.1910 O   0  0  0  0  0  0  0  0  0  0  0  0
    2.5460   -0.6060    0.2360 C   0  0  0  0  0  0  0  0  0  0  0  0
    1.1380   -0.1330   -0.0220 C   0  0  0  0  0  0  0  0  0  0  0  0
   -1.2140   -0.4370    0.1680 C   0  0  0  0  0  0  0  0  0  0  0  0
    0.9460    0.9550   -0.5220 O   0  0  0  0  0  0  0  0  0  0  0  0
   -0.6900    1.5820    0.6620 H   0  0  0  0  0  0  0  0  0  0  0  0
   -2.9900    2.4240    0.4210 H   0  0  0  0  0  0  0  0  0  0  0  0
   -4.8070    0.8860   -0.2010 H   0  0  0  0  0  0  0  0  0  0  0  0
   -4.3310   -1.4980   -0.5850 H   0  0  0  0  0  0  0  0  0  0  0  0
   -2.0340   -2.3500   -0.3460 H   0  0  0  0  0  0  0  0  0  0  0  0
    0.2460   -1.8180    0.6330 H   0  0  0  0  0  0  0  0  0  0  0  0
    5.0690   -0.8620   -0.5490 H   0  0  0  0  0  0  0  0  0  0  0  0
    5.4790    0.8580   -0.3400 H   0  0  0  0  0  0  0  0  0  0  0  0
    5.0200   -0.1260    1.0710 H   0  0  0  0  0  0  0  0  0  0  0  0
    2.7260   -1.5270   -0.3180 H   0  0  0  0  0  0  0  0  0  0  0  0
    2.6770   -0.7910    1.3020 H   0  0  0  0  0  0  0  0  0  0  0  0
  7  8  1  0  0  0  0
  8  9  1  0  0  0  0
  9 10  1  0  0  0  0
 10 12  2  0  0  0  0
  6 10  1  0  0  0  0
  6 11  1  0  0  0  0
  1 11  1  0  0  0  0
  1  2  2  0  0  0  0
  2  3  1  0  0  0  0
  3  4  2  0  0  0  0
  4  5  1  0  0  0  0
  5 11  2  0  0  0  0
  1 13  1  0  0  0  0
  2 14  1  0  0  0  0
  3 15  1  0  0  0  0
  4 16  1  0  0  0  0
  5 17  1  0  0  0  0
  6 18  1  0  0  0  0
  7 19  1  0  0  0  0
  7 20  1  0  0  0  0
  7 21  1  0  0  0  0
  9 22  1  0  0  0  0
  9 23  1  0  0  0  0
M  END
> <OPENEYE_ISO_SMILES>
COCC(=O)Nc1ccccc1

> <OPENEYE_INCHI>
InChI=1S/C9H11NO2/c1-12-7-9(11)10-8-5-3-2-4-6-8/h2-6H,7H2,1H3,(H,10,11)

> <OPENEYE_INCHIKEY>
LEQAQBFYCMENLP-UHFFFAOYSA-N

> <FORMULA>
C9H11NO2

$$$$
