NZD
  -OEChem-02242320033D

 33 34  0     0  0  0  0  0  0999 V2000
    4.0010    0.2480   -0.0160 N   0  0  0  0  0  0  0  0  0  0  0  0
   -0.8920    0.6420   -0.0370 N   0  0  0  0  0  0  0  0  0  0  0  0
    1.8010    1.2630   -0.3760 C   0  0  0  0  0  0  0  0  0  0  0  0
    3.0530    1.2410    0.5080 C   0  0  0  0  0  0  0  0  0  0  0  0
   -0.0210   -0.3710   -0.2190 C   0  0  0  0  0  0  0  0  0  0  0  0
   -2.2630    0.3780    0.0530 C   0  0  0  0  0  0  0  0  0  0  0  0
   -3.1840    1.3610   -0.2860 C   0  0  0  0  0  0  0  0  0  0  0  0
   -4.9750   -0.1430    0.2300 C   0  0  0  0  0  0  0  0  0  0  0  0
    5.2820    0.3160    0.6990 C   0  0  0  0  0  0  0  0  0  0  0  0
   -4.0600   -1.1270    0.5570 C   0  0  0  0  0  0  0  0  0  0  0  0
   -2.7060   -0.8680    0.4750 C   0  0  0  0  0  0  0  0  0  0  0  0
    3.4380   -1.1070    0.0400 C   0  0  0  0  0  0  0  0  0  0  0  0
    2.2020   -1.1810   -0.8630 C   0  0  0  0  0  0  0  0  0  0  0  0
   -4.5370    1.0970   -0.1970 C   0  0  0  0  0  0  0  0  0  0  0  0
    1.2750   -0.1070   -0.4760 N   0  0  0  0  0  0  0  0  0  0  0  0
   -0.4060   -1.5220   -0.1530 O   0  0  0  0  0  0  0  0  0  0  0  0
   -0.5680    1.5540    0.0320 H   0  0  0  0  0  0  0  0  0  0  0  0
    1.0480    1.9120    0.0720 H   0  0  0  0  0  0  0  0  0  0  0  0
    2.0600    1.6320   -1.3680 H   0  0  0  0  0  0  0  0  0  0  0  0
    2.7730    0.9740    1.5280 H   0  0  0  0  0  0  0  0  0  0  0  0
    3.5180    2.2260    0.5040 H   0  0  0  0  0  0  0  0  0  0  0  0
   -2.8430    2.3300   -0.6190 H   0  0  0  0  0  0  0  0  0  0  0  0
   -6.0330   -0.3470    0.2990 H   0  0  0  0  0  0  0  0  0  0  0  0
    5.9900   -0.3750    0.2410 H   0  0  0  0  0  0  0  0  0  0  0  0
    5.6770    1.3310    0.6420 H   0  0  0  0  0  0  0  0  0  0  0  0
    5.1310    0.0430    1.7430 H   0  0  0  0  0  0  0  0  0  0  0  0
   -4.4050   -2.0950    0.8900 H   0  0  0  0  0  0  0  0  0  0  0  0
   -1.9920   -1.6350    0.7390 H   0  0  0  0  0  0  0  0  0  0  0  0
    4.1830   -1.8250   -0.3040 H   0  0  0  0  0  0  0  0  0  0  0  0
    3.1540   -1.3410    1.0660 H   0  0  0  0  0  0  0  0  0  0  0  0
    2.5000   -1.0500   -1.9030 H   0  0  0  0  0  0  0  0  0  0  0  0
    1.7160   -2.1490   -0.7400 H   0  0  0  0  0  0  0  0  0  0  0  0
   -5.2540    1.8640   -0.4510 H   0  0  0  0  0  0  0  0  0  0  0  0
  8 10  2  0  0  0  0
 10 11  1  0  0  0  0
  8 14  1  0  0  0  0
  6 11  2  0  0  0  0
  7 14  2  0  0  0  0
  6  7  1  0  0  0  0
  2  6  1  0  0  0  0
  2  5  1  0  0  0  0
  5 16  2  0  0  0  0
  5 15  1  0  0  0  0
 13 15  1  0  0  0  0
  3 15  1  0  0  0  0
 12 13  1  0  0  0  0
  1  4  1  0  0  0  0
  3  4  1  0  0  0  0
  1 12  1  0  0  0  0
  1  9  1  0  0  0  0
  2 17  1  0  0  0  0
  3 18  1  0  0  0  0
  3 19  1  0  0  0  0
  4 20  1  0  0  0  0
  4 21  1  0  0  0  0
  7 22  1  0  0  0  0
  8 23  1  0  0  0  0
  9 24  1  0  0  0  0
  9 25  1  0  0  0  0
  9 26  1  0  0  0  0
 10 27  1  0  0  0  0
 11 28  1  0  0  0  0
 12 29  1  0  0  0  0
 12 30  1  0  0  0  0
 13 31  1  0  0  0  0
 13 32  1  0  0  0  0
 14 33  1  0  0  0  0
M  END
> <OPENEYE_ISO_SMILES>
CN1CCN(CC1)C(=O)Nc2ccccc2

> <OPENEYE_INCHI>
InChI=1S/C12H17N3O/c1-14-7-9-15(10-8-14)12(16)13-11-5-3-2-4-6-11/h2-6H,7-10H2,1H3,(H,13,16)

> <OPENEYE_INCHIKEY>
SXNAOFHNRSEHNL-UHFFFAOYSA-N

> <FORMULA>
C12H17N3O

$$$$
