AR6
  -OEChem-02242320013D

 59 62  0     1  0  0  0  0  0999 V2000
   -8.2320    3.1160    0.3450 N   0  0  0  0  0  0  0  0  0  0  0  0
   -8.0220    2.2810    1.3470 C   0  0  0  0  0  0  0  0  0  0  0  0
   -7.0050    1.4450    1.3680 N   0  0  0  0  0  0  0  0  0  0  0  0
   -6.1350    1.4100    0.3640 C   0  0  0  0  0  0  0  0  0  0  0  0
   -6.3150    2.2790   -0.7250 C   0  0  0  0  0  0  0  0  0  0  0  0
   -7.4150    3.1530   -0.7020 C   0  0  0  0  0  0  0  0  0  0  0  0
   -7.6430    4.0310   -1.7470 N   0  0  0  0  0  0  0  0  0  0  0  0
   -5.3040    2.0420   -1.5960 N   0  0  0  0  0  0  0  0  0  0  0  0
   -4.5350    1.1050   -1.1220 C   0  0  0  0  0  0  0  0  0  0  0  0
   -5.0060    0.6830    0.0860 N   0  0  0  0  0  0  0  0  0  0  0  0
    0.8140   -2.2730   -0.7820 P   0  0  2  0  0  0  0  0  0  0  0  0
    3.2920   -0.7860   -1.4420 P   0  0  2  0  0  0  0  0  0  0  0  0
   -4.4140   -0.3570    0.9310 C   0  0  1  0  0  0  0  0  0  0  0  0
    1.3390   -3.7230   -0.3190 O   0  0  0  0  0  0  0  0  0  0  0  0
    2.8590    0.1740   -2.6590 O   0  0  0  0  0  0  0  0  0  0  0  0
    7.8060    0.7430    1.9930 C   0  0  2  0  0  0  0  0  0  0  0  0
    7.2820    1.4530    3.1170 O   0  0  0  0  0  0  0  0  0  0  0  0
   -5.0910   -1.7260    0.6680 C   0  0  2  0  0  0  0  0  0  0  0  0
   -6.2620   -1.8780    1.4720 O   0  0  0  0  0  0  0  0  0  0  0  0
    0.4200   -2.3220   -2.2080 O   0  0  0  0  0  0  0  0  0  0  0  0
    3.9260   -2.0100   -1.9800 O   0  0  0  0  0  0  0  0  0  0  0  0
    8.5380    1.7180    1.0510 C   0  0  2  0  0  0  0  0  0  0  0  0
    8.5090    3.0440    1.5830 O   0  0  0  0  0  0  0  0  0  0  0  0
   -3.9890   -2.7220    1.1040 C   0  0  2  0  0  0  0  0  0  0  0  0
   -4.2270   -3.1800    2.4370 O   0  0  0  0  0  0  0  0  0  0  0  0
    1.9880   -1.1890   -0.5870 O   0  0  0  0  0  0  0  0  0  0  0  0
    7.7320    1.6460   -0.2690 C   0  0  2  0  0  0  0  0  0  0  0  0
    7.5820    2.9450   -0.8460 O   0  0  0  0  0  0  0  0  0  0  0  0
   -2.6880   -1.8980    1.0410 C   0  0  2  0  0  0  0  0  0  0  0  0
   -3.0360   -0.5870    0.5650 O   0  0  0  0  0  0  0  0  0  0  0  0
    6.3670    1.0930    0.2130 C   0  0  2  0  0  0  0  0  0  0  0  0
    6.7310    0.1510    1.2450 O   0  0  0  0  0  0  0  0  0  0  0  0
   -1.7010   -2.5570    0.0760 C   0  0  0  0  0  0  0  0  0  0  0  0
   -0.4580   -1.8530    0.1120 O   0  0  0  0  0  0  0  0  0  0  0  0
    5.6380    0.3850   -0.9310 C   0  0  0  0  0  0  0  0  0  0  0  0
    4.3370   -0.0120   -0.4930 O   0  0  0  0  0  0  0  0  0  0  0  0
   -8.7100    2.2840    2.1790 H   0  0  0  0  0  0  0  0  0  0  0  0
   -8.4070    4.6290   -1.7200 H   0  0  0  0  0  0  0  0  0  0  0  0
   -7.0400    4.0480   -2.5070 H   0  0  0  0  0  0  0  0  0  0  0  0
   -3.6540    0.7200   -1.6130 H   0  0  0  0  0  0  0  0  0  0  0  0
   -4.4930   -0.0850    1.9840 H   0  0  0  0  0  0  0  0  0  0  0  0
    8.4940   -0.0320    2.3330 H   0  0  0  0  0  0  0  0  0  0  0  0
   -5.3290   -1.8460   -0.3890 H   0  0  0  0  0  0  0  0  0  0  0  0
   -6.7220   -2.7190    1.3430 H   0  0  0  0  0  0  0  0  0  0  0  0
    9.5660    1.3940    0.8910 H   0  0  0  0  0  0  0  0  0  0  0  0
    8.9490    3.1330    2.4400 H   0  0  0  0  0  0  0  0  0  0  0  0
   -3.9430   -3.5650    0.4140 H   0  0  0  0  0  0  0  0  0  0  0  0
   -5.0620   -3.6550    2.5460 H   0  0  0  0  0  0  0  0  0  0  0  0
    8.2030    0.9620   -0.9750 H   0  0  0  0  0  0  0  0  0  0  0  0
    8.4180    3.3700   -1.0810 H   0  0  0  0  0  0  0  0  0  0  0  0
   -2.2470   -1.8260    2.0350 H   0  0  0  0  0  0  0  0  0  0  0  0
    5.7520    1.8940    0.6240 H   0  0  0  0  0  0  0  0  0  0  0  0
   -1.5400   -3.5930    0.3720 H   0  0  0  0  0  0  0  0  0  0  0  0
   -2.1070   -2.5270   -0.9360 H   0  0  0  0  0  0  0  0  0  0  0  0
    5.5450    1.0640   -1.7780 H   0  0  0  0  0  0  0  0  0  0  0  0
    6.2050   -0.4960   -1.2320 H   0  0  0  0  0  0  0  0  0  0  0  0
    1.6150   -3.7640    0.6070 H   0  0  0  0  0  0  0  0  0  0  0  0
    2.4350    0.9980   -2.3790 H   0  0  0  0  0  0  0  0  0  0  0  0
    6.8090    0.8960    3.7490 H   0  0  0  0  0  0  0  0  0  0  0  0
  1  2  2  0  0  0  0
  1  6  1  0  0  0  0
  2  3  1  0  0  0  0
  3  4  2  0  0  0  0
  4  5  1  0  0  0  0
  4 10  1  0  0  0  0
  5  6  2  0  0  0  0
  5  8  1  0  0  0  0
  6  7  1  0  0  0  0
  8  9  2  0  0  0  0
  9 10  1  0  0  0  0
 10 13  1  0  0  0  0
 11 14  1  0  0  0  0
 11 20  2  0  0  0  0
 11 26  1  0  0  0  0
 11 34  1  0  0  0  0
 12 15  1  0  0  0  0
 12 21  2  0  0  0  0
 12 26  1  0  0  0  0
 12 36  1  0  0  0  0
 13 18  1  0  0  0  0
 13 30  1  0  0  0  0
 16 17  1  0  0  0  0
 16 22  1  0  0  0  0
 16 32  1  0  0  0  0
 18 19  1  0  0  0  0
 18 24  1  0  0  0  0
 22 23  1  0  0  0  0
 22 27  1  0  0  0  0
 24 25  1  0  0  0  0
 24 29  1  0  0  0  0
 27 28  1  0  0  0  0
 27 31  1  0  0  0  0
 29 30  1  0  0  0  0
 29 33  1  0  0  0  0
 31 32  1  0  0  0  0
 31 35  1  0  0  0  0
 33 34  1  0  0  0  0
 35 36  1  0  0  0  0
  2 37  1  0  0  0  0
  7 38  1  0  0  0  0
  7 39  1  0  0  0  0
  9 40  1  0  0  0  0
 13 41  1  0  0  0  0
 16 42  1  0  0  0  0
 18 43  1  0  0  0  0
 19 44  1  0  0  0  0
 22 45  1  0  0  0  0
 23 46  1  0  0  0  0
 24 47  1  0  0  0  0
 25 48  1  0  0  0  0
 27 49  1  0  0  0  0
 28 50  1  0  0  0  0
 29 51  1  0  0  0  0
 31 52  1  0  0  0  0
 33 53  1  0  0  0  0
 33 54  1  0  0  0  0
 35 55  1  0  0  0  0
 35 56  1  0  0  0  0
 14 57  1  0  0  0  0
 15 58  1  0  0  0  0
 17 59  1  0  0  0  0
M  END
> <OPENEYE_ISO_SMILES>
c1nc(c2c(n1)n(cn2)[C@H]3[C@@H]([C@@H]([C@H](O3)CO[P@](=O)(O)O[P@@](=O)(O)OC[C@@H]4[C@H]([C@H]([C@H](O4)O)O)O)O)O)N

> <OPENEYE_INCHI>
InChI=1S/C15H23N5O14P2/c16-12-7-13(18-3-17-12)20(4-19-7)14-10(23)8(21)5(32-14)1-30-35(26,27)34-36(28,29)31-2-6-9(22)11(24)15(25)33-6/h3-6,8-11,14-15,21-25H,1-2H2,(H,26,27)(H,28,29)(H2,16,17,18)/t5-,6-,8-,9-,10-,11-,14-,15+/m1/s1

> <OPENEYE_INCHIKEY>
SRNWOUGRCWSEMX-ZQSHOCFMSA-N

> <FORMULA>
C15H23N5O14P2

$$$$
