QJU
  -OEChem-02242320033D

 46 50  0     1  0  0  0  0  0999 V2000
   -2.5710   -2.8850    0.5130 C   0  0  0  0  0  0  0  0  0  0  0  0
   -4.6820   -2.0140   -0.2390 C   0  0  0  0  0  0  0  0  0  0  0  0
   -3.9030   -3.0770    0.1700 C   0  0  0  0  0  0  0  0  0  0  0  0
   -4.1360   -0.7370   -0.3090 C   0  0  0  0  0  0  0  0  0  0  0  0
   -2.7930   -0.5420    0.0500 C   0  0  0  0  0  0  0  0  0  0  0  0
   -2.5220    0.8920   -0.1290 C   0  0  0  0  0  0  0  0  0  0  0  0
   -1.4010    1.7110    0.0520 C   0  0  0  0  0  0  0  0  0  0  0  0
    0.1840    1.7700    1.7880 C   0  0  0  0  0  0  0  0  0  0  0  0
   -2.0160   -1.6250    0.4550 C   0  0  0  0  0  0  0  0  0  0  0  0
    6.6020   -2.8280   -0.5410 C   0  0  0  0  0  0  0  0  0  0  0  0
    5.8720   -1.5130   -0.4450 C   0  0  0  0  0  0  0  0  0  0  0  0
    4.4400    0.0270   -0.6800 C   0  0  0  0  0  0  0  0  0  0  0  0
    3.2320    0.8370   -1.0750 C   0  0  0  0  0  0  0  0  0  0  0  0
    2.1230    0.6360   -0.0410 C   0  0  1  0  0  0  0  0  0  0  0  0
    2.5690    1.2130    1.3060 C   0  0  0  0  0  0  0  0  0  0  0  0
    1.4310    1.0610    2.3190 C   0  0  0  0  0  0  0  0  0  0  0  0
   -3.7170    1.4720   -0.5840 C   0  0  0  0  0  0  0  0  0  0  0  0
   -2.6570    3.5170   -0.6410 C   0  0  0  0  0  0  0  0  0  0  0  0
    0.8550    1.3580   -0.5040 C   0  0  0  0  0  0  0  0  0  0  0  0
   -4.4400   -4.3150    0.2360 F   0  0  0  0  0  0  0  0  0  0  0  0
    6.2620   -0.4630    0.2120 N   0  0  0  0  0  0  0  0  0  0  0  0
   -0.2030    1.1830    0.4990 N   0  0  2  0  0  0  0  0  0  0  0  0
   -4.6670    0.4860   -0.6850 N   0  0  0  0  0  0  0  0  0  0  0  0
   -3.7340    2.7830   -0.8250 N   0  0  0  0  0  0  0  0  0  0  0  0
   -1.5150    3.0100   -0.2150 N   0  0  0  0  0  0  0  0  0  0  0  0
    4.6990   -1.2100   -1.0290 N   0  0  0  0  0  0  0  0  0  0  0  0
    5.4530    0.4330    0.0910 O   0  0  0  0  0  0  0  0  0  0  0  0
   -1.9710   -3.7240    0.8320 H   0  0  0  0  0  0  0  0  0  0  0  0
   -5.7140   -2.1750   -0.5130 H   0  0  0  0  0  0  0  0  0  0  0  0
   -0.6330    1.6520    2.5000 H   0  0  0  0  0  0  0  0  0  0  0  0
    0.3980    2.8310    1.6530 H   0  0  0  0  0  0  0  0  0  0  0  0
   -0.9800   -1.4780    0.7230 H   0  0  0  0  0  0  0  0  0  0  0  0
    7.2790   -2.8060   -1.3950 H   0  0  0  0  0  0  0  0  0  0  0  0
    7.1740   -2.9930    0.3720 H   0  0  0  0  0  0  0  0  0  0  0  0
    5.8810   -3.6360   -0.6700 H   0  0  0  0  0  0  0  0  0  0  0  0
    3.5010    1.8930   -1.1190 H   0  0  0  0  0  0  0  0  0  0  0  0
    2.8800    0.5110   -2.0540 H   0  0  0  0  0  0  0  0  0  0  0  0
    1.9160   -0.4280    0.0690 H   0  0  0  0  0  0  0  0  0  0  0  0
    3.4470    0.6720    1.6610 H   0  0  0  0  0  0  0  0  0  0  0  0
    2.8150    2.2680    1.1870 H   0  0  0  0  0  0  0  0  0  0  0  0
    1.7270    1.5080    3.2680 H   0  0  0  0  0  0  0  0  0  0  0  0
    1.2140    0.0040    2.4670 H   0  0  0  0  0  0  0  0  0  0  0  0
   -2.7090    4.5760   -0.8480 H   0  0  0  0  0  0  0  0  0  0  0  0
    1.0660    2.4200   -0.6270 H   0  0  0  0  0  0  0  0  0  0  0  0
    0.5270    0.9400   -1.4560 H   0  0  0  0  0  0  0  0  0  0  0  0
   -5.5810    0.6260   -0.9790 H   0  0  0  0  0  0  0  0  0  0  0  0
 10 11  1  0  0  0  0
 11 21  2  0  0  0  0
 21 27  1  0  0  0  0
 12 27  1  0  0  0  0
 13 14  1  0  0  0  0
 14 15  1  0  0  0  0
 15 16  1  0  0  0  0
  8 16  1  0  0  0  0
  8 22  1  0  0  0  0
  6  7  2  0  0  0  0
  5  6  1  0  0  0  0
  4  5  2  0  0  0  0
  2  3  2  0  0  0  0
  1  9  2  0  0  0  0
  1  3  1  0  0  0  0
  3 20  1  0  0  0  0
  2  4  1  0  0  0  0
  4 23  1  0  0  0  0
 17 23  1  0  0  0  0
 17 24  2  0  0  0  0
 18 24  1  0  0  0  0
 18 25  2  0  0  0  0
  7 22  1  0  0  0  0
 19 22  1  0  0  0  0
 12 13  1  0  0  0  0
 12 26  2  0  0  0  0
 11 26  1  0  0  0  0
 14 19  1  0  0  0  0
  7 25  1  0  0  0  0
  6 17  1  0  0  0  0
  5  9  1  0  0  0  0
  1 28  1  0  0  0  0
  2 29  1  0  0  0  0
  8 30  1  0  0  0  0
  8 31  1  0  0  0  0
  9 32  1  0  0  0  0
 10 33  1  0  0  0  0
 10 34  1  0  0  0  0
 10 35  1  0  0  0  0
 13 36  1  0  0  0  0
 13 37  1  0  0  0  0
 14 38  1  0  0  0  0
 15 39  1  0  0  0  0
 15 40  1  0  0  0  0
 16 41  1  0  0  0  0
 16 42  1  0  0  0  0
 18 43  1  0  0  0  0
 19 44  1  0  0  0  0
 19 45  1  0  0  0  0
 23 46  1  0  0  0  0
M  END
> <OPENEYE_ISO_SMILES>
Cc1nc(on1)C[C@H]2CCC[N@](C2)c3c4c5ccc(cc5[nH]c4ncn3)F

> <OPENEYE_INCHI>
InChI=1S/C19H19FN6O/c1-11-23-16(27-25-11)7-12-3-2-6-26(9-12)19-17-14-5-4-13(20)8-15(14)24-18(17)21-10-22-19/h4-5,8,10,12H,2-3,6-7,9H2,1H3,(H,21,22,24)/t12-/m1/s1

> <OPENEYE_INCHIKEY>
ZXGIEJJPEJFTMR-GFCCVEGCSA-N

> <FORMULA>
C19H19FN6O

$$$$
