WIO
  -OEChem-02242320043D

 74 75  0     1  0  0  0  0  0999 V2000
    1.1640    0.1160   -0.9830 C   0  0  1  0  0  0  0  0  0  0  0  0
    1.4390    1.4280   -1.7190 C   0  0  0  0  0  0  0  0  0  0  0  0
    0.3380    1.6750   -2.7510 C   0  0  0  0  0  0  0  0  0  0  0  0
    0.5440    3.0450   -3.4000 C   0  0  0  0  0  0  0  0  0  0  0  0
    0.3940    0.5880   -3.8270 C   0  0  0  0  0  0  0  0  0  0  0  0
    2.3100   -0.1890   -0.0540 C   0  0  0  0  0  0  0  0  0  0  0  0
    4.6840   -0.5500    0.3630 C   0  0  1  0  0  0  0  0  0  0  0  0
    4.7480    0.6070    1.3610 C   0  0  0  0  0  0  0  0  0  0  0  0
    4.9990    1.9160    0.6090 C   0  0  2  0  0  0  0  0  0  0  0  0
    6.8390    3.3760    0.1240 C   0  0  0  0  0  0  0  0  0  0  0  0
    6.4010    1.9040   -0.0440 C   0  0  0  0  0  0  0  0  0  0  0  0
    4.2590    3.2660    2.4770 O   0  0  0  0  0  0  0  0  0  0  0  0
    4.4990   -1.8670    1.1200 C   0  0  2  0  0  0  0  0  0  0  0  0
    5.6300   -2.0940    1.9640 O   0  0  0  0  0  0  0  0  0  0  0  0
   -1.2630    0.0110   -0.7960 C   0  0  0  0  0  0  0  0  0  0  0  0
   -3.6450   -0.1360   -0.7820 C   0  0  0  0  0  0  0  0  0  0  0  0
   -4.8190    0.0430    0.1830 C   0  0  0  0  0  0  0  0  0  0  0  0
   -4.6730   -0.9350    1.3510 C   0  0  0  0  0  0  0  0  0  0  0  0
    5.0460    3.0800    1.5740 C   0  0  0  0  0  0  0  0  0  0  0  0
   -4.8260    1.4770    0.7170 C   0  0  0  0  0  0  0  0  0  0  0  0
   -7.1920   -0.0940    0.2130 C   0  0  0  0  0  0  0  0  0  0  0  0
   -7.1390    0.2520    1.5560 C   0  0  0  0  0  0  0  0  0  0  0  0
   -8.3060    0.3810    2.2840 C   0  0  0  0  0  0  0  0  0  0  0  0
   -9.5280    0.1660    1.6750 C   0  0  0  0  0  0  0  0  0  0  0  0
   -9.5860   -0.1790    0.3360 C   0  0  0  0  0  0  0  0  0  0  0  0
   -8.4190   -0.3090   -0.3960 C   0  0  0  0  0  0  0  0  0  0  0  0
  -10.7820   -0.3900   -0.2570 F   0  0  0  0  0  0  0  0  0  0  0  0
   -0.0730    0.2410   -0.2070 N   0  0  0  0  0  0  0  0  0  0  0  0
    3.5540   -0.3480   -0.5480 N   0  0  0  0  0  0  0  0  0  0  0  0
    6.0870    3.8790    1.2840 N   0  0  0  0  0  0  0  0  0  0  0  0
   -2.4000    0.1260   -0.0830 O   0  0  0  0  0  0  0  0  0  0  0  0
    2.1140   -0.2920    1.1390 O   0  0  0  0  0  0  0  0  0  0  0  0
   -1.3110   -0.3000   -1.9690 O   0  0  0  0  0  0  0  0  0  0  0  0
   -6.0450   -0.2150   -0.5040 O   0  0  0  0  0  0  0  0  0  0  0  0
    4.3470   -3.2310   -0.0660 S   0  0  0  0  0  0  0  0  0  0  0  0
    1.0580   -0.6920   -1.7070 H   0  0  0  0  0  0  0  0  0  0  0  0
    1.4570    2.2500   -1.0030 H   0  0  0  0  0  0  0  0  0  0  0  0
    2.4030    1.3660   -2.2240 H   0  0  0  0  0  0  0  0  0  0  0  0
   -0.6340    1.6490   -2.2590 H   0  0  0  0  0  0  0  0  0  0  0  0
    1.5160    3.0720   -3.8930 H   0  0  0  0  0  0  0  0  0  0  0  0
   -0.2410    3.2210   -4.1360 H   0  0  0  0  0  0  0  0  0  0  0  0
    0.5040    3.8200   -2.6340 H   0  0  0  0  0  0  0  0  0  0  0  0
    1.3660    0.6140   -4.3190 H   0  0  0  0  0  0  0  0  0  0  0  0
    0.2470   -0.3880   -3.3650 H   0  0  0  0  0  0  0  0  0  0  0  0
   -0.3910    0.7640   -4.5620 H   0  0  0  0  0  0  0  0  0  0  0  0
    5.6100   -0.5880   -0.2100 H   0  0  0  0  0  0  0  0  0  0  0  0
    3.8030    0.6740    1.9010 H   0  0  0  0  0  0  0  0  0  0  0  0
    5.5590    0.4330    2.0680 H   0  0  0  0  0  0  0  0  0  0  0  0
    4.2290    2.0760   -0.1450 H   0  0  0  0  0  0  0  0  0  0  0  0
    7.9110    3.4310    0.3130 H   0  0  0  0  0  0  0  0  0  0  0  0
    6.5840    3.9490   -0.7680 H   0  0  0  0  0  0  0  0  0  0  0  0
    7.0740    1.2340    0.4910 H   0  0  0  0  0  0  0  0  0  0  0  0
    6.3380    1.6330   -1.0970 H   0  0  0  0  0  0  0  0  0  0  0  0
   -3.6400   -1.1580   -1.1620 H   0  0  0  0  0  0  0  0  0  0  0  0
   -3.7490    0.5610   -1.6140 H   0  0  0  0  0  0  0  0  0  0  0  0
   -3.8440   -0.6220    1.9850 H   0  0  0  0  0  0  0  0  0  0  0  0
   -5.5940   -0.9430    1.9350 H   0  0  0  0  0  0  0  0  0  0  0  0
   -4.4780   -1.9350    0.9650 H   0  0  0  0  0  0  0  0  0  0  0  0
   -4.9600    2.1720   -0.1120 H   0  0  0  0  0  0  0  0  0  0  0  0
   -5.6440    1.5970    1.4270 H   0  0  0  0  0  0  0  0  0  0  0  0
   -3.8790    1.6840    1.2160 H   0  0  0  0  0  0  0  0  0  0  0  0
   -6.1840    0.4190    2.0330 H   0  0  0  0  0  0  0  0  0  0  0  0
   -8.2630    0.6490    3.3290 H   0  0  0  0  0  0  0  0  0  0  0  0
  -10.4400    0.2670    2.2460 H   0  0  0  0  0  0  0  0  0  0  0  0
   -8.4630   -0.5770   -1.4420 H   0  0  0  0  0  0  0  0  0  0  0  0
   -0.0350    0.4900    0.7290 H   0  0  0  0  0  0  0  0  0  0  0  0
    3.7010   -0.3290   -1.5060 H   0  0  0  0  0  0  0  0  0  0  0  0
    6.3150    4.6830    1.7770 H   0  0  0  0  0  0  0  0  0  0  0  0
    3.0660   -2.9280   -0.8300 O   0  0  0  0  0  0  0  0  0  0  0  0
    5.3690   -3.1510   -1.0510 O   0  0  0  0  0  0  0  0  0  0  0  0
    4.0740   -4.4510    0.6090 O   0  0  0  0  0  0  0  0  0  0  0  0
    3.5970   -1.8130    1.7290 H   0  0  0  0  0  0  0  0  0  0  0  0
    5.7730   -1.4020    2.6250 H   0  0  0  0  0  0  0  0  0  0  0  0
    2.8500   -3.5810   -1.5100 H   0  0  0  0  0  0  0  0  0  0  0  0
 10 30  1  0  0  0  0
 19 30  1  0  0  0  0
 10 11  1  0  0  0  0
  9 11  1  0  0  0  0
 12 19  2  0  0  0  0
  9 19  1  0  0  0  0
  8  9  1  0  0  0  0
  7  8  1  0  0  0  0
 13 14  1  0  0  0  0
  7 13  1  0  0  0  0
 13 35  1  0  0  0  0
  7 29  1  0  0  0  0
  6 32  2  0  0  0  0
  6 29  1  0  0  0  0
 17 20  1  0  0  0  0
  1  6  1  0  0  0  0
 16 17  1  0  0  0  0
 16 31  1  0  0  0  0
 17 18  1  0  0  0  0
 17 34  1  0  0  0  0
 15 33  2  0  0  0  0
 15 31  1  0  0  0  0
 15 28  1  0  0  0  0
  1 28  1  0  0  0  0
  1  2  1  0  0  0  0
 21 34  1  0  0  0  0
  2  3  1  0  0  0  0
 21 26  2  0  0  0  0
 21 22  1  0  0  0  0
 25 26  1  0  0  0  0
 22 23  2  0  0  0  0
  3  5  1  0  0  0  0
  3  4  1  0  0  0  0
 25 27  1  0  0  0  0
 24 25  2  0  0  0  0
 23 24  1  0  0  0  0
  1 36  1  0  0  0  0
  2 37  1  0  0  0  0
  2 38  1  0  0  0  0
  3 39  1  0  0  0  0
  4 40  1  0  0  0  0
  4 41  1  0  0  0  0
  4 42  1  0  0  0  0
  5 43  1  0  0  0  0
  5 44  1  0  0  0  0
  5 45  1  0  0  0  0
  7 46  1  0  0  0  0
  8 47  1  0  0  0  0
  8 48  1  0  0  0  0
  9 49  1  0  0  0  0
 10 50  1  0  0  0  0
 10 51  1  0  0  0  0
 11 52  1  0  0  0  0
 11 53  1  0  0  0  0
 16 54  1  0  0  0  0
 16 55  1  0  0  0  0
 18 56  1  0  0  0  0
 18 57  1  0  0  0  0
 18 58  1  0  0  0  0
 20 59  1  0  0  0  0
 20 60  1  0  0  0  0
 20 61  1  0  0  0  0
 22 62  1  0  0  0  0
 23 63  1  0  0  0  0
 24 64  1  0  0  0  0
 26 65  1  0  0  0  0
 28 66  1  0  0  0  0
 29 67  1  0  0  0  0
 30 68  1  0  0  0  0
 35 69  1  0  0  0  0
 35 70  2  0  0  0  0
 35 71  2  0  0  0  0
 13 72  1  0  0  0  0
 14 73  1  0  0  0  0
 69 74  1  0  0  0  0
M  END
> <OPENEYE_ISO_SMILES>
CC(C)C[C@@H](C(=O)N[C@@H](C[C@@H]1CCNC1=O)[C@H](O)S(=O)(=O)O)NC(=O)OCC(C)(C)Oc2cccc(c2)F

> <OPENEYE_INCHI>
InChI=1S/C24H36FN3O9S/c1-14(2)10-18(28-23(32)36-13-24(3,4)37-17-7-5-6-16(25)12-17)21(30)27-19(22(31)38(33,34)35)11-15-8-9-26-20(15)29/h5-7,12,14-15,18-19,22,31H,8-11,13H2,1-4H3,(H,26,29)(H,27,30)(H,28,32)(H,33,34,35)/t15-,18-,19-,22+/m0/s1

> <OPENEYE_INCHIKEY>
PKFJNVLUPJZVQH-SXTKRDDTSA-N

> <FORMULA>
C24H36FN3O9S

$$$$
