UQS
  -OEChem-02242320043D

 24 25  0     0  0  0  0  0  0999 V2000
   -4.2160   -0.2840   -0.6920 N   0  0  0  0  0  0  0  0  0  0  0  0
    2.1820   -1.5360   -0.0750 C   0  0  0  0  0  0  0  0  0  0  0  0
    1.4710   -0.3760   -0.3200 C   0  0  0  0  0  0  0  0  0  0  0  0
    0.0270   -0.4520   -0.7430 C   0  0  0  0  0  0  0  0  0  0  0  0
   -2.2320   -0.0760    0.2320 C   0  0  0  0  0  0  0  0  0  0  0  0
   -2.9360   -0.4040   -0.9360 C   0  0  0  0  0  0  0  0  0  0  0  0
   -0.8320   -0.0800    0.3840 N   0  0  0  0  0  0  0  0  0  0  0  0
    2.0870    0.8560   -0.1770 C   0  0  0  0  0  0  0  0  0  0  0  0
    3.4140    0.9240    0.2120 C   0  0  0  0  0  0  0  0  0  0  0  0
    4.1230   -0.2370    0.4560 C   0  0  0  0  0  0  0  0  0  0  0  0
    3.5050   -1.4660    0.3170 C   0  0  0  0  0  0  0  0  0  0  0  0
   -3.1390    0.2450    1.1890 C   0  0  0  0  0  0  0  0  0  0  0  0
    1.3930    1.9900   -0.4160 F   0  0  0  0  0  0  0  0  0  0  0  0
   -4.3760    0.1230    0.6380 N   0  0  0  0  0  0  0  0  0  0  0  0
    1.7020   -2.4970   -0.1870 H   0  0  0  0  0  0  0  0  0  0  0  0
   -0.1460    0.2340   -1.5720 H   0  0  0  0  0  0  0  0  0  0  0  0
   -0.2070   -1.4690   -1.0580 H   0  0  0  0  0  0  0  0  0  0  0  0
   -2.4960   -0.7030   -1.8760 H   0  0  0  0  0  0  0  0  0  0  0  0
   -0.4360    0.1630    1.2360 H   0  0  0  0  0  0  0  0  0  0  0  0
    3.8960    1.8840    0.3240 H   0  0  0  0  0  0  0  0  0  0  0  0
    5.1580   -0.1840    0.7590 H   0  0  0  0  0  0  0  0  0  0  0  0
    4.0600   -2.3730    0.5090 H   0  0  0  0  0  0  0  0  0  0  0  0
   -2.9180    0.5430    2.2030 H   0  0  0  0  0  0  0  0  0  0  0  0
   -5.2200    0.2890    1.0870 H   0  0  0  0  0  0  0  0  0  0  0  0
  8 13  1  0  0  0  0
  8  9  1  0  0  0  0
  9 10  2  0  0  0  0
 10 11  1  0  0  0  0
  2 11  2  0  0  0  0
  2  3  1  0  0  0  0
  3  8  2  0  0  0  0
  3  4  1  0  0  0  0
  4  7  1  0  0  0  0
  5  7  1  0  0  0  0
  5  6  1  0  0  0  0
  1  6  2  0  0  0  0
  1 14  1  0  0  0  0
 12 14  1  0  0  0  0
  5 12  2  0  0  0  0
  2 15  1  0  0  0  0
  4 16  1  0  0  0  0
  4 17  1  0  0  0  0
  6 18  1  0  0  0  0
  7 19  1  0  0  0  0
  9 20  1  0  0  0  0
 10 21  1  0  0  0  0
 11 22  1  0  0  0  0
 12 23  1  0  0  0  0
 14 24  1  0  0  0  0
M  END
> <OPENEYE_ISO_SMILES>
c1ccc(c(c1)CNc2c[nH]nc2)F

> <OPENEYE_INCHI>
InChI=1S/C10H10FN3/c11-10-4-2-1-3-8(10)5-12-9-6-13-14-7-9/h1-4,6-7,12H,5H2,(H,13,14)

> <OPENEYE_INCHIKEY>
PDSIYANAENEXNZ-UHFFFAOYSA-N

> <FORMULA>
C10H10FN3

$$$$
