@<TRIPOS>MOLECULE
/home/pku/3cl/gett_pdb/5S2J/5S2J_mol2/ligand/5S2J_JGG.pdb
 18 19 0 0 0
SMALL
GASTEIGER

@<TRIPOS>ATOM
      1  C13       35.2670   30.2270    0.1590 C.3   601  JGG601      0.1637
      2  C15       33.6270   30.6930    1.7590 C.3   601  JGG601      0.1637
      3  C17       27.0730   27.4500   -4.5670 C.1   601  JGG601      0.1004
      4  C01       28.6860   27.6150   -1.2160 C.ar  601  JGG601     -0.0019
      5  C02       27.8200   27.8720   -2.2660 C.ar  601  JGG601      0.0100
      6  C03       27.9310   27.1500   -3.4510 C.ar  601  JGG601      0.0684
      7  C04       28.9040   26.1610   -3.5590 C.ar  601  JGG601      0.0100
      8  C05       29.7650   25.9220   -2.5040 C.ar  601  JGG601     -0.0019
      9  C06       29.6690   26.6420   -1.3200 C.ar  601  JGG601     -0.0005
     10  C07       30.5800   26.3350   -0.1550 C.3   601  JGG601      0.1431
     11  N08       31.3830   27.4730    0.2750 N.am  601  JGG601     -0.1836
     12  C09       32.6020   27.7280   -0.2510 C.2   601  JGG601      0.3237
     13  O10       33.0810   27.0010   -1.1130 O.2   601  JGG601     -0.2508
     14  N11       33.2700   28.8330    0.2100 N.am  601  JGG601     -0.2577
     15  C12       34.3310   29.3770   -0.6530 C.3   601  JGG601      0.1271
     16  O14       34.5650   31.2600    0.8470 O.3   601  JGG601     -0.3501
     17  C16       32.6040   29.8470    1.0440 C.3   601  JGG601      0.1271
     18  N18       26.4180   27.6730   -5.4700 N.1   601  JGG601     -0.1908
@<TRIPOS>BOND
     1    18     3    3
     2     3     6    1
     3     7     6   ar
     4     7     8   ar
     5     6     5   ar
     6     8     9   ar
     7     5     4   ar
     8     9     4   ar
     9     9    10    1
    10    13    12    2
    11    15     1    1
    12    15    14    1
    13    12    14   am
    14    12    11   am
    15    10    11    1
    16     1    16    1
    17    14    17    1
    18    16     2    1
    19    17     2    1
