YSM
  -OEChem-02242320043D

 55 59  0     0  0  0  0  0  0999 V2000
   -1.2550   -1.3960    0.5760 C   0  0  0  0  0  0  0  0  0  0  0  0
    8.5240   -1.9870   -1.0790 F   0  0  0  0  0  0  0  0  0  0  0  0
   -2.4540   -1.8930    0.2170 N   0  0  0  0  0  0  0  0  0  0  0  0
   -2.6590   -3.2780    0.2390 C   0  0  0  0  0  0  0  0  0  0  0  0
   -3.5460   -3.8430    1.1450 C   0  0  0  0  0  0  0  0  0  0  0  0
   -5.3620    2.7530   -2.1940 N   0  0  0  0  0  0  0  0  0  0  0  0
   -7.3770    3.5350   -1.7380 O   0  0  0  0  0  0  0  0  0  0  0  0
   -3.1130   -5.9600    0.3440 C   0  0  0  0  0  0  0  0  0  0  0  0
    3.7550    0.5190   -0.1770 O   0  0  0  0  0  0  0  0  0  0  0  0
   -2.2190   -5.4700   -0.5910 C   0  0  0  0  0  0  0  0  0  0  0  0
   -1.9820   -4.1070   -0.6520 C   0  0  0  0  0  0  0  0  0  0  0  0
   -3.4670   -1.0730   -0.1670 C   0  0  0  0  0  0  0  0  0  0  0  0
   -3.2950    0.2920   -0.1980 C   0  0  0  0  0  0  0  0  0  0  0  0
   -4.4110    1.1740   -0.6190 C   0  0  0  0  0  0  0  0  0  0  0  0
   -4.3220    1.9650   -1.8530 C   0  0  0  0  0  0  0  0  0  0  0  0
   -5.5440    1.2720    0.1310 C   0  0  0  0  0  0  0  0  0  0  0  0
   -6.4540    2.8130   -1.4110 C   0  0  0  0  0  0  0  0  0  0  0  0
   -2.0530    0.8470    0.1710 C   0  0  0  0  0  0  0  0  0  0  0  0
   -1.0290    0.0010    0.5600 C   0  0  0  0  0  0  0  0  0  0  0  0
    0.2890    0.5520    0.9550 C   0  0  0  0  0  0  0  0  0  0  0  0
    0.4000    1.3510    2.0920 C   0  0  0  0  0  0  0  0  0  0  0  0
    1.6300    1.8620    2.4580 C   0  0  0  0  0  0  0  0  0  0  0  0
    2.7530    1.5840    1.6990 C   0  0  0  0  0  0  0  0  0  0  0  0
    4.9900    1.0850    0.2670 C   0  0  0  0  0  0  0  0  0  0  0  0
    6.0950    0.6790   -0.6740 C   0  0  0  0  0  0  0  0  0  0  0  0
    6.3950    1.4680   -1.7690 C   0  0  0  0  0  0  0  0  0  0  0  0
    7.4080    1.0970   -2.6330 C   0  0  0  0  0  0  0  0  0  0  0  0
    8.1240   -0.0620   -2.4020 C   0  0  0  0  0  0  0  0  0  0  0  0
    6.8130   -0.4770   -0.4380 C   0  0  0  0  0  0  0  0  0  0  0  0
    2.6490    0.7900    0.5650 C   0  0  0  0  0  0  0  0  0  0  0  0
    7.8250   -0.8530   -1.3050 C   0  0  0  0  0  0  0  0  0  0  0  0
    1.4210    0.2680    0.1940 C   0  0  0  0  0  0  0  0  0  0  0  0
   -3.7420   -5.1470    1.1700 N   0  0  0  0  0  0  0  0  0  0  0  0
   -6.5530    2.0980   -0.2790 N   0  0  0  0  0  0  0  0  0  0  0  0
   -0.3630   -2.1520    0.9210 O   0  0  0  0  0  0  0  0  0  0  0  0
   -3.3290    1.9100   -2.5550 O   0  0  0  0  0  0  0  0  0  0  0  0
    1.7680    2.8570    3.8740 Cl  0  0  0  0  0  0  0  0  0  0  0  0
   -4.0800   -3.2100    1.8380 H   0  0  0  0  0  0  0  0  0  0  0  0
   -5.3210    3.2830   -3.0060 H   0  0  0  0  0  0  0  0  0  0  0  0
   -3.3010   -7.0220    0.3950 H   0  0  0  0  0  0  0  0  0  0  0  0
   -1.7120   -6.1440   -1.2660 H   0  0  0  0  0  0  0  0  0  0  0  0
   -1.2900   -3.6970   -1.3730 H   0  0  0  0  0  0  0  0  0  0  0  0
   -4.4190   -1.4970   -0.4500 H   0  0  0  0  0  0  0  0  0  0  0  0
   -5.6430    0.7050    1.0450 H   0  0  0  0  0  0  0  0  0  0  0  0
   -1.9040    1.9170    0.1510 H   0  0  0  0  0  0  0  0  0  0  0  0
   -0.4750    1.5700    2.6870 H   0  0  0  0  0  0  0  0  0  0  0  0
    3.7110    1.9890    1.9860 H   0  0  0  0  0  0  0  0  0  0  0  0
    4.9060    2.1710    0.2830 H   0  0  0  0  0  0  0  0  0  0  0  0
    5.2150    0.7230    1.2700 H   0  0  0  0  0  0  0  0  0  0  0  0
    5.8360    2.3750   -1.9500 H   0  0  0  0  0  0  0  0  0  0  0  0
    7.6410    1.7140   -3.4880 H   0  0  0  0  0  0  0  0  0  0  0  0
    8.9150   -0.3520   -3.0770 H   0  0  0  0  0  0  0  0  0  0  0  0
    6.5790   -1.0930    0.4180 H   0  0  0  0  0  0  0  0  0  0  0  0
    1.3410   -0.3540   -0.6860 H   0  0  0  0  0  0  0  0  0  0  0  0
   -7.3590    2.1660    0.2570 H   0  0  0  0  0  0  0  0  0  0  0  0
  2 31  1  0  0  0  0
 28 31  2  0  0  0  0
 29 31  1  0  0  0  0
 27 28  1  0  0  0  0
 25 29  2  0  0  0  0
 26 27  2  0  0  0  0
 25 26  1  0  0  0  0
 24 25  1  0  0  0  0
  9 24  1  0  0  0  0
  9 30  1  0  0  0  0
 23 30  2  0  0  0  0
 22 23  1  0  0  0  0
 22 37  1  0  0  0  0
 30 32  1  0  0  0  0
 21 22  2  0  0  0  0
 20 32  2  0  0  0  0
 20 21  1  0  0  0  0
 19 20  1  0  0  0  0
  1 35  2  0  0  0  0
  1 19  1  0  0  0  0
 18 19  2  0  0  0  0
  1  3  1  0  0  0  0
 13 18  1  0  0  0  0
  3  4  1  0  0  0  0
  3 12  1  0  0  0  0
  4  5  2  0  0  0  0
  4 11  1  0  0  0  0
  5 33  1  0  0  0  0
 12 13  2  0  0  0  0
 13 14  1  0  0  0  0
 10 11  2  0  0  0  0
  8 33  2  0  0  0  0
 14 16  2  0  0  0  0
 16 34  1  0  0  0  0
  8 10  1  0  0  0  0
 14 15  1  0  0  0  0
 17 34  1  0  0  0  0
 15 36  2  0  0  0  0
  6 15  1  0  0  0  0
  6 17  1  0  0  0  0
  7 17  2  0  0  0  0
  5 38  1  0  0  0  0
  6 39  1  0  0  0  0
  8 40  1  0  0  0  0
 10 41  1  0  0  0  0
 11 42  1  0  0  0  0
 12 43  1  0  0  0  0
 16 44  1  0  0  0  0
 18 45  1  0  0  0  0
 21 46  1  0  0  0  0
 23 47  1  0  0  0  0
 24 48  1  0  0  0  0
 24 49  1  0  0  0  0
 26 50  1  0  0  0  0
 27 51  1  0  0  0  0
 28 52  1  0  0  0  0
 29 53  1  0  0  0  0
 32 54  1  0  0  0  0
 34 55  1  0  0  0  0
M  END
> <OPENEYE_ISO_SMILES>
c1cc(cc(c1)F)COc2cc(cc(c2)Cl)c3cc(cn(c3=O)c4cccnc4)c5c[nH]c(=O)[nH]c5=O

> <OPENEYE_INCHI>
InChI=1S/C27H18ClFN4O4/c28-19-8-17(9-22(11-19)37-15-16-3-1-4-20(29)7-16)23-10-18(24-13-31-27(36)32-25(24)34)14-33(26(23)35)21-5-2-6-30-12-21/h1-14H,15H2,(H2,31,32,34,36)

> <OPENEYE_INCHIKEY>
DGQRJEVFDWWDCX-UHFFFAOYSA-N

> <FORMULA>
C27H18ClFN4O4

$$$$
