S3E
  -OEChem-02242320043D

 33 35  0     1  0  0  0  0  0999 V2000
    4.1920   -0.1970   -0.7750 C   0  0  0  0  0  0  0  0  0  0  0  0
    2.7260    0.1420   -0.8610 C   0  0  0  0  0  0  0  0  0  0  0  0
    2.3060    0.9100    0.3930 C   0  0  1  0  0  0  0  0  0  0  0  0
    0.8500    1.3630    0.2510 C   0  0  0  0  0  0  0  0  0  0  0  0
   -1.3390    0.5500   -0.0230 C   0  0  0  0  0  0  0  0  0  0  0  0
   -2.3490   -0.4190   -0.1310 C   0  0  0  0  0  0  0  0  0  0  0  0
   -2.3890   -1.8800   -0.0990 C   0  0  0  0  0  0  0  0  0  0  0  0
   -3.6740   -2.2360   -0.2590 C   0  0  0  0  0  0  0  0  0  0  0  0
   -3.6770    0.0070   -0.3160 C   0  0  0  0  0  0  0  0  0  0  0  0
   -2.9450    2.1880   -0.2770 C   0  0  0  0  0  0  0  0  0  0  0  0
    0.1310   -0.6690    1.3500 C   0  0  0  0  0  0  0  0  0  0  0  0
    1.5940   -1.1020    1.4800 C   0  0  0  0  0  0  0  0  0  0  0  0
   -0.0190    0.1810    0.1600 N   0  0  2  0  0  0  0  0  0  0  0  0
   -4.4540   -1.1160   -0.3900 N   0  0  0  0  0  0  0  0  0  0  0  0
   -3.9220    1.3150   -0.3820 N   0  0  0  0  0  0  0  0  0  0  0  0
   -1.6840    1.8320   -0.1070 N   0  0  0  0  0  0  0  0  0  0  0  0
    4.7850   -0.8700   -1.7740 O   0  0  0  0  0  0  0  0  0  0  0  0
    2.4260    0.0600    1.5370 O   0  0  0  0  0  0  0  0  0  0  0  0
    4.8340    0.1410    0.1900 O   0  0  0  0  0  0  0  0  0  0  0  0
    2.5470    0.7580   -1.7420 H   0  0  0  0  0  0  0  0  0  0  0  0
    2.1440   -0.7770   -0.9370 H   0  0  0  0  0  0  0  0  0  0  0  0
    2.9480    1.7820    0.5180 H   0  0  0  0  0  0  0  0  0  0  0  0
    0.5670    1.9570    1.1210 H   0  0  0  0  0  0  0  0  0  0  0  0
    0.7430    1.9660   -0.6500 H   0  0  0  0  0  0  0  0  0  0  0  0
   -1.5480   -2.5450    0.0280 H   0  0  0  0  0  0  0  0  0  0  0  0
   -4.0390   -3.2530   -0.2810 H   0  0  0  0  0  0  0  0  0  0  0  0
   -3.1820    3.2400   -0.3350 H   0  0  0  0  0  0  0  0  0  0  0  0
   -0.5020   -1.5510    1.2490 H   0  0  0  0  0  0  0  0  0  0  0  0
   -0.1640   -0.1090    2.2370 H   0  0  0  0  0  0  0  0  0  0  0  0
    1.7200   -1.6850    2.3920 H   0  0  0  0  0  0  0  0  0  0  0  0
    1.8720   -1.7080    0.6180 H   0  0  0  0  0  0  0  0  0  0  0  0
   -5.4160   -1.1190   -0.5160 H   0  0  0  0  0  0  0  0  0  0  0  0
    5.7270   -1.0610   -1.6760 H   0  0  0  0  0  0  0  0  0  0  0  0
 12 18  1  0  0  0  0
 11 12  1  0  0  0  0
  3 18  1  0  0  0  0
 11 13  1  0  0  0  0
  2  3  1  0  0  0  0
  3  4  1  0  0  0  0
  1  2  1  0  0  0  0
  4 13  1  0  0  0  0
  5 13  1  0  0  0  0
  5 16  2  0  0  0  0
 10 16  1  0  0  0  0
  5  6  1  0  0  0  0
  1 19  2  0  0  0  0
  1 17  1  0  0  0  0
 10 15  2  0  0  0  0
  6  9  2  0  0  0  0
  6  7  1  0  0  0  0
  9 15  1  0  0  0  0
  9 14  1  0  0  0  0
  7  8  2  0  0  0  0
  8 14  1  0  0  0  0
  2 20  1  0  0  0  0
  2 21  1  0  0  0  0
  3 22  1  0  0  0  0
  4 23  1  0  0  0  0
  4 24  1  0  0  0  0
  7 25  1  0  0  0  0
  8 26  1  0  0  0  0
 10 27  1  0  0  0  0
 11 28  1  0  0  0  0
 11 29  1  0  0  0  0
 12 30  1  0  0  0  0
 12 31  1  0  0  0  0
 14 32  1  0  0  0  0
 17 33  1  0  0  0  0
M  END
> <OPENEYE_ISO_SMILES>
c1c[nH]c2c1c(ncn2)[N@@]3CCO[C@H](C3)CC(=O)O

> <OPENEYE_INCHI>
InChI=1S/C12H14N4O3/c17-10(18)5-8-6-16(3-4-19-8)12-9-1-2-13-11(9)14-7-15-12/h1-2,7-8H,3-6H2,(H,17,18)(H,13,14,15)/t8-/m0/s1

> <OPENEYE_INCHIKEY>
PRFABXNJKOXNTN-QMMMGPOBSA-N

> <FORMULA>
C12H14N4O3

$$$$
