WYG
  -OEChem-02242320043D

 33 35  0     1  0  0  0  0  0999 V2000
   -4.3170   -1.7290   -0.4190 C   0  0  0  0  0  0  0  0  0  0  0  0
    1.2460   -2.0100    0.5940 C   0  0  0  0  0  0  0  0  0  0  0  0
    4.7040    0.2870   -0.2660 C   0  0  0  0  0  0  0  0  0  0  0  0
    3.4020    0.9820    0.0390 C   0  0  0  0  0  0  0  0  0  0  0  0
    2.2400    0.0170   -0.2070 C   0  0  2  0  0  0  0  0  0  0  0  0
    0.9130    0.7570   -0.0190 C   0  0  0  0  0  0  0  0  0  0  0  0
   -1.4190    0.4500   -0.0710 C   0  0  0  0  0  0  0  0  0  0  0  0
   -2.6210   -0.2650   -0.1860 C   0  0  0  0  0  0  0  0  0  0  0  0
   -2.9760   -1.6640   -0.4160 C   0  0  0  0  0  0  0  0  0  0  0  0
   -3.8360    0.4340   -0.0660 C   0  0  0  0  0  0  0  0  0  0  0  0
   -2.6460    2.3770    0.2520 C   0  0  0  0  0  0  0  0  0  0  0  0
   -0.0910   -1.2910    0.7900 C   0  0  0  0  0  0  0  0  0  0  0  0
   -0.1980   -0.1920   -0.1810 N   0  0  2  0  0  0  0  0  0  0  0  0
   -4.8430   -0.4800   -0.2140 N   0  0  0  0  0  0  0  0  0  0  0  0
   -3.7960    1.7480    0.1510 N   0  0  0  0  0  0  0  0  0  0  0  0
   -1.4820    1.7600    0.1470 N   0  0  0  0  0  0  0  0  0  0  0  0
    5.8650    0.9450   -0.1200 O   0  0  0  0  0  0  0  0  0  0  0  0
    2.3130   -1.0660    0.7240 O   0  0  0  0  0  0  0  0  0  0  0  0
    4.7030   -0.8610   -0.6410 O   0  0  0  0  0  0  0  0  0  0  0  0
   -4.8950   -2.6300   -0.5650 H   0  0  0  0  0  0  0  0  0  0  0  0
    1.3550   -2.7880    1.3490 H   0  0  0  0  0  0  0  0  0  0  0  0
    1.2750   -2.4590   -0.3990 H   0  0  0  0  0  0  0  0  0  0  0  0
    3.3950    1.3000    1.0810 H   0  0  0  0  0  0  0  0  0  0  0  0
    3.2940    1.8520   -0.6080 H   0  0  0  0  0  0  0  0  0  0  0  0
    2.2990   -0.3720   -1.2240 H   0  0  0  0  0  0  0  0  0  0  0  0
    0.8770    1.1920    0.9790 H   0  0  0  0  0  0  0  0  0  0  0  0
    0.8280    1.5480   -0.7640 H   0  0  0  0  0  0  0  0  0  0  0  0
   -2.2910   -2.4880   -0.5560 H   0  0  0  0  0  0  0  0  0  0  0  0
   -2.6520    3.4430    0.4270 H   0  0  0  0  0  0  0  0  0  0  0  0
   -0.9090   -1.9940    0.6360 H   0  0  0  0  0  0  0  0  0  0  0  0
   -0.1430   -0.8880    1.8020 H   0  0  0  0  0  0  0  0  0  0  0  0
   -5.7900   -0.2740   -0.1770 H   0  0  0  0  0  0  0  0  0  0  0  0
    6.6750    0.4580   -0.3270 H   0  0  0  0  0  0  0  0  0  0  0  0
  2 18  1  0  0  0  0
  5 18  1  0  0  0  0
  2 12  1  0  0  0  0
 12 13  1  0  0  0  0
  4  5  1  0  0  0  0
  5  6  1  0  0  0  0
  3  4  1  0  0  0  0
  6 13  1  0  0  0  0
  7 13  1  0  0  0  0
  7 16  2  0  0  0  0
 11 16  1  0  0  0  0
  7  8  1  0  0  0  0
  3 19  2  0  0  0  0
  3 17  1  0  0  0  0
 11 15  2  0  0  0  0
  8 10  2  0  0  0  0
  8  9  1  0  0  0  0
 10 15  1  0  0  0  0
 10 14  1  0  0  0  0
  1  9  2  0  0  0  0
  1 14  1  0  0  0  0
  1 20  1  0  0  0  0
  2 21  1  0  0  0  0
  2 22  1  0  0  0  0
  4 23  1  0  0  0  0
  4 24  1  0  0  0  0
  5 25  1  0  0  0  0
  6 26  1  0  0  0  0
  6 27  1  0  0  0  0
  9 28  1  0  0  0  0
 11 29  1  0  0  0  0
 12 30  1  0  0  0  0
 12 31  1  0  0  0  0
 14 32  1  0  0  0  0
 17 33  1  0  0  0  0
M  END
> <OPENEYE_ISO_SMILES>
c1c[nH]c2c1c(ncn2)[N@@]3CCO[C@@H](C3)CC(=O)O

> <OPENEYE_INCHI>
InChI=1S/C12H14N4O3/c17-10(18)5-8-6-16(3-4-19-8)12-9-1-2-13-11(9)14-7-15-12/h1-2,7-8H,3-6H2,(H,17,18)(H,13,14,15)/t8-/m1/s1

> <OPENEYE_INCHIKEY>
PRFABXNJKOXNTN-MRVPVSSYSA-N

> <FORMULA>
C12H14N4O3

$$$$
