@<TRIPOS>MOLECULE
/home/pku/3cl/gett_pdb/7SFH/7SFH_mol2/ligand/7SFH_91I.pdb
 34 37 0 0 0
SMALL
GASTEIGER

@<TRIPOS>ATOM
      1  N1       -20.1810   15.9630  -26.0590 N.am  401  91I401     -0.2729
      2  N3       -19.4820   20.7880  -31.9270 N.am  401  91I401     -0.0855
      3  C4       -21.3980   14.8030  -27.7050 C.3   401  91I401      0.0220
      4  C5       -20.2540   13.9610  -28.2150 C.3   401  91I401      0.0037
      5  C6       -19.3260   13.2470  -27.2570 C.3   401  91I401      0.0001
      6  C7       -20.4620   13.1730  -29.5000 C.3   401  91I401      0.0001
      7  C8       -21.4450   15.2360  -26.2620 C.3   401  91I401      0.0938
      8  C10      -20.3450   15.9830  -23.6460 C.3   401  91I401      0.0900
      9  C13      -19.5510   13.0350  -21.3350 C.ar  401  91I401     -0.0043
     10  C15      -21.3520   12.7260  -19.8000 C.ar  401  91I401     -0.0000
     11  C17      -21.4630   14.4560  -21.4230 C.ar  401  91I401     -0.0043
     12  C20      -18.4880   20.8200  -30.8890 C.2   401  91I401      0.2929
     13  C21      -17.4890   20.5410  -27.9480 C.3   401  91I401      0.0340
     14  C22      -17.8340   20.8070  -26.4840 C.3   401  91I401      0.0818
     15  C24      -18.7410   22.3830  -24.9770 C.3   401  91I401      0.1156
     16  O1       -20.6320   18.4180  -27.4060 O.2   401  91I401     -0.2716
     17  C1       -19.6120   17.7580  -27.5910 C.2   401  91I401      0.2595
     18  C2       -19.4950   16.2700  -27.3070 C.3   401  91I401      0.1534
     19  C3       -20.2130   15.4630  -28.3610 C.3   401  91I401      0.0289
     20  C9       -19.6800   16.4280  -24.9200 C.2   401  91I401      0.2263
     21  C11      -19.5570   14.8320  -23.0500 C.3   401  91I401      0.0359
     22  C12      -20.2070   14.1050  -21.9100 C.ar  401  91I401     -0.0217
     23  C14      -20.1180   12.3730  -20.2650 C.ar  401  91I401     -0.0003
     24  C16      -22.0360   13.7530  -20.3820 C.ar  401  91I401     -0.0003
     25  O2       -18.7030   17.1980  -24.9400 O.2   401  91I401     -0.2748
     26  N2       -18.5210   18.3120  -28.0800 N.am  401  91I401     -0.2027
     27  C18      -18.4800   19.6430  -28.6910 C.3   401  91I401      0.1352
     28  C19      -18.1640   19.5210  -30.2000 C.3   401  91I401      0.2503
     29  O3       -19.1210   18.5690  -30.7130 O.3   401  91I401     -0.2113
     30  O4       -17.8850   21.8490  -30.7100 O.2   401  91I401     -0.2688
     31  C23      -19.0450   21.6590  -26.2440 C.3   401  91I401      0.0326
     32  N4       -17.2840   22.4820  -25.0150 N.am  401  91I401     -0.2054
     33  C25      -16.7440   21.5490  -25.7360 C.2   401  91I401      0.2410
     34  O5       -15.5370   21.3180  -25.8060 O.2   401  91I401     -0.2734
@<TRIPOS>BOND
     1     2    12   am
     2    12    30    2
     3    12    28    1
     4    29    28    1
     5    28    27    1
     6     6     4    1
     7    27    26    1
     8    27    13    1
     9    19     4    1
    10    19     3    1
    11    19    18    1
    12     4     3    1
    13     4     5    1
    14    26    17   am
    15    13    14    1
    16     3     7    1
    17    17    16    2
    18    17    18    1
    19    18     1    1
    20    14    31    1
    21    14    33    1
    22     7     1    1
    23    31    15    1
    24     1    20   am
    25    34    33    2
    26    33    32   am
    27    32    15    1
    28    25    20    2
    29    20     8    1
    30     8    21    1
    31    21    22    1
    32    22    11   ar
    33    22     9   ar
    34    11    24   ar
    35     9    23   ar
    36    24    10   ar
    37    23    10   ar
