YMJ
  -OEChem-02242320043D

 76 77  0     1  0  0  0  0  0999 V2000
   10.9810   -0.6100   -0.5850 C   0  0  0  0  0  0  0  0  0  0  0  0
   -3.9780   -1.9230   -0.8300 C   0  0  2  0  0  0  0  0  0  0  0  0
   -5.6980    1.9610    0.3810 C   0  0  0  0  0  0  0  0  0  0  0  0
   -6.0870    3.4450    0.2040 C   0  0  0  0  0  0  0  0  0  0  0  0
    4.9780    1.2030    0.0890 C   0  0  0  0  0  0  0  0  0  0  0  0
    4.3690   -0.1270   -0.3600 C   0  0  0  0  0  0  0  0  0  0  0  0
   -4.4740    3.0160   -1.4120 C   0  0  0  0  0  0  0  0  0  0  0  0
    7.2560    0.3570   -0.4950 C   0  0  0  0  0  0  0  0  0  0  0  0
    8.6720    0.1180    0.0310 C   0  0  0  0  0  0  0  0  0  0  0  0
    2.0200    0.0240    0.0340 C   0  0  0  0  0  0  0  0  0  0  0  0
   -4.3740    1.8840   -0.4140 C   0  0  2  0  0  0  0  0  0  0  0  0
    6.3950    0.9640    0.6150 C   0  0  0  0  0  0  0  0  0  0  0  0
   -0.3450    0.1430    0.6070 C   0  0  1  0  0  0  0  0  0  0  0  0
    9.5650   -0.3710   -1.1110 C   0  0  0  0  0  0  0  0  0  0  0  0
    6.6470   -0.9730   -0.9440 C   0  0  0  0  0  0  0  0  0  0  0  0
    5.2300   -0.7330   -1.4700 C   0  0  0  0  0  0  0  0  0  0  0  0
   -0.5060    1.4930    1.3090 C   0  0  0  0  0  0  0  0  0  0  0  0
    0.7470    1.7920    2.1340 C   0  0  0  0  0  0  0  0  0  0  0  0
    0.6390    3.1950    2.7350 C   0  0  0  0  0  0  0  0  0  0  0  0
    0.8740    0.7630    3.2600 C   0  0  0  0  0  0  0  0  0  0  0  0
   -1.6250   -0.2090   -0.1060 C   0  0  0  0  0  0  0  0  0  0  0  0
   -4.0350   -0.5720   -0.1120 C   0  0  2  0  0  0  0  0  0  0  0  0
   -4.2600    0.5410   -1.1370 C   0  0  0  0  0  0  0  0  0  0  0  0
    0.7480    0.2250   -0.3640 N   0  0  0  0  0  0  0  0  0  0  0  0
   -2.7710   -0.3400    0.5920 N   0  0  0  0  0  0  0  0  0  0  0  0
   -5.4450    3.8720   -1.0450 N   0  0  0  0  0  0  0  0  0  0  0  0
    2.2600   -0.2250    1.1990 O   0  0  0  0  0  0  0  0  0  0  0  0
   -3.7810    3.1350   -2.4000 O   0  0  0  0  0  0  0  0  0  0  0  0
   -5.2350   -2.1810   -1.4580 O   0  0  0  0  0  0  0  0  0  0  0  0
   -1.6240   -0.3750   -1.3070 O   0  0  0  0  0  0  0  0  0  0  0  0
    3.0250    0.1000   -0.8590 O   0  0  0  0  0  0  0  0  0  0  0  0
   11.3820    0.3200   -0.1840 H   0  0  0  0  0  0  0  0  0  0  0  0
   10.9540   -1.3640    0.2030 H   0  0  0  0  0  0  0  0  0  0  0  0
   11.6170   -0.9590   -1.3990 H   0  0  0  0  0  0  0  0  0  0  0  0
   -3.6230   -3.2330    0.3740 S   0  0  0  0  0  0  0  0  0  0  0  0
   -3.1920   -1.9000   -1.5840 H   0  0  0  0  0  0  0  0  0  0  0  0
   -5.5360    1.7230    1.4320 H   0  0  0  0  0  0  0  0  0  0  0  0
   -6.4520    1.3050   -0.0540 H   0  0  0  0  0  0  0  0  0  0  0  0
   -7.1700    3.5440    0.1240 H   0  0  0  0  0  0  0  0  0  0  0  0
   -5.7160    4.0350    1.0420 H   0  0  0  0  0  0  0  0  0  0  0  0
    5.0160    1.8890   -0.7570 H   0  0  0  0  0  0  0  0  0  0  0  0
    4.3650    1.6350    0.8800 H   0  0  0  0  0  0  0  0  0  0  0  0
    4.3320   -0.8130    0.4860 H   0  0  0  0  0  0  0  0  0  0  0  0
    7.2940    1.0430   -1.3410 H   0  0  0  0  0  0  0  0  0  0  0  0
    9.0730    1.0490    0.4330 H   0  0  0  0  0  0  0  0  0  0  0  0
    8.6450   -0.6350    0.8190 H   0  0  0  0  0  0  0  0  0  0  0  0
   -3.5220    2.0350    0.2490 H   0  0  0  0  0  0  0  0  0  0  0  0
    6.8290    1.9110    0.9350 H   0  0  0  0  0  0  0  0  0  0  0  0
    6.3570    0.2770    1.4610 H   0  0  0  0  0  0  0  0  0  0  0  0
   -0.1170   -0.6260    1.3460 H   0  0  0  0  0  0  0  0  0  0  0  0
    9.5920    0.3820   -1.8990 H   0  0  0  0  0  0  0  0  0  0  0  0
    9.1640   -1.3020   -1.5130 H   0  0  0  0  0  0  0  0  0  0  0  0
    7.2600   -1.4050   -1.7350 H   0  0  0  0  0  0  0  0  0  0  0  0
    6.6090   -1.6590   -0.0980 H   0  0  0  0  0  0  0  0  0  0  0  0
    4.7960   -1.6810   -1.7900 H   0  0  0  0  0  0  0  0  0  0  0  0
    5.2680   -0.0470   -2.3160 H   0  0  0  0  0  0  0  0  0  0  0  0
   -0.6460    2.2750    0.5630 H   0  0  0  0  0  0  0  0  0  0  0  0
   -1.3750    1.4590    1.9670 H   0  0  0  0  0  0  0  0  0  0  0  0
    1.6260    1.7380    1.4920 H   0  0  0  0  0  0  0  0  0  0  0  0
   -0.2400    3.2480    3.3770 H   0  0  0  0  0  0  0  0  0  0  0  0
    1.5320    3.4080    3.3230 H   0  0  0  0  0  0  0  0  0  0  0  0
    0.5490    3.9270    1.9330 H   0  0  0  0  0  0  0  0  0  0  0  0
    0.9510   -0.2360    2.8320 H   0  0  0  0  0  0  0  0  0  0  0  0
    1.7670    0.9760    3.8480 H   0  0  0  0  0  0  0  0  0  0  0  0
   -0.0050    0.8170    3.9020 H   0  0  0  0  0  0  0  0  0  0  0  0
   -4.8550   -0.5770    0.6060 H   0  0  0  0  0  0  0  0  0  0  0  0
   -5.1790    0.3460   -1.6890 H   0  0  0  0  0  0  0  0  0  0  0  0
   -3.4190    0.5720   -1.8300 H   0  0  0  0  0  0  0  0  0  0  0  0
    0.5570    0.4240   -1.2940 H   0  0  0  0  0  0  0  0  0  0  0  0
   -2.7590   -0.2800    1.5600 H   0  0  0  0  0  0  0  0  0  0  0  0
   -5.6890    4.6690   -1.5410 H   0  0  0  0  0  0  0  0  0  0  0  0
   -5.4890   -1.5190   -2.1150 H   0  0  0  0  0  0  0  0  0  0  0  0
   -4.4910   -3.1290    1.4940 O   0  0  0  0  0  0  0  0  0  0  0  0
   -3.4230   -4.4750   -0.2860 O   0  0  0  0  0  0  0  0  0  0  0  0
   -2.2510   -2.8770    0.9280 O   0  0  0  0  0  0  0  0  0  0  0  0
   -1.9230   -3.4980    1.5940 H   0  0  0  0  0  0  0  0  0  0  0  0
  7 28  2  0  0  0  0
  7 26  1  0  0  0  0
  7 11  1  0  0  0  0
  4 26  1  0  0  0  0
 11 23  1  0  0  0  0
 22 23  1  0  0  0  0
  3 11  1  0  0  0  0
  2 22  1  0  0  0  0
  2 29  1  0  0  0  0
  3  4  1  0  0  0  0
 22 25  1  0  0  0  0
 21 25  1  0  0  0  0
 10 27  2  0  0  0  0
 13 21  1  0  0  0  0
 21 30  2  0  0  0  0
 18 19  1  0  0  0  0
 13 24  1  0  0  0  0
 13 17  1  0  0  0  0
 10 24  1  0  0  0  0
 10 31  1  0  0  0  0
 15 16  1  0  0  0  0
  8 15  1  0  0  0  0
  6 16  1  0  0  0  0
  6 31  1  0  0  0  0
  5  6  1  0  0  0  0
  8  9  1  0  0  0  0
  9 14  1  0  0  0  0
  8 12  1  0  0  0  0
  5 12  1  0  0  0  0
 17 18  1  0  0  0  0
 18 20  1  0  0  0  0
  1 14  1  0  0  0  0
  1 32  1  0  0  0  0
  1 33  1  0  0  0  0
  1 34  1  0  0  0  0
  2 35  1  0  0  0  0
  2 36  1  0  0  0  0
  3 37  1  0  0  0  0
  3 38  1  0  0  0  0
  4 39  1  0  0  0  0
  4 40  1  0  0  0  0
  5 41  1  0  0  0  0
  5 42  1  0  0  0  0
  6 43  1  0  0  0  0
  8 44  1  0  0  0  0
  9 45  1  0  0  0  0
  9 46  1  0  0  0  0
 11 47  1  0  0  0  0
 12 48  1  0  0  0  0
 12 49  1  0  0  0  0
 13 50  1  0  0  0  0
 14 51  1  0  0  0  0
 14 52  1  0  0  0  0
 15 53  1  0  0  0  0
 15 54  1  0  0  0  0
 16 55  1  0  0  0  0
 16 56  1  0  0  0  0
 17 57  1  0  0  0  0
 17 58  1  0  0  0  0
 18 59  1  0  0  0  0
 19 60  1  0  0  0  0
 19 61  1  0  0  0  0
 19 62  1  0  0  0  0
 20 63  1  0  0  0  0
 20 64  1  0  0  0  0
 20 65  1  0  0  0  0
 22 66  1  0  0  0  0
 23 67  1  0  0  0  0
 23 68  1  0  0  0  0
 24 69  1  0  0  0  0
 25 70  1  0  0  0  0
 26 71  1  0  0  0  0
 29 72  1  0  0  0  0
 35 73  2  0  0  0  0
 35 74  2  0  0  0  0
 35 75  1  0  0  0  0
 75 76  1  0  0  0  0
M  END
> <OPENEYE_ISO_SMILES>
CCCC1CCC(CC1)OC(=O)N[C@@H](CC(C)C)C(=O)N[C@@H](C[C@@H]2CCNC2=O)[C@H](O)S(=O)(=O)O

> <OPENEYE_INCHI>
InChI=1S/C23H41N3O8S/c1-4-5-15-6-8-17(9-7-15)34-23(30)26-18(12-14(2)3)21(28)25-19(22(29)35(31,32)33)13-16-10-11-24-20(16)27/h14-19,22,29H,4-13H2,1-3H3,(H,24,27)(H,25,28)(H,26,30)(H,31,32,33)/t15-,16-,17-,18-,19-,22+/m0/s1

> <OPENEYE_INCHIKEY>
VCQYBHSDNWQLAS-ZXLNZJBRSA-N

> <FORMULA>
C23H41N3O8S

$$$$
