YMM
  -OEChem-02242320043D

 76 77  0     1  0  0  0  0  0999 V2000
    2.3600   -0.0070    0.2380 C   0  0  0  0  0  0  0  0  0  0  0  0
   -4.2850    2.2640   -0.4480 C   0  0  1  0  0  0  0  0  0  0  0  0
   -5.3440    2.8890   -1.3290 C   0  0  0  0  0  0  0  0  0  0  0  0
   -4.5970    4.5850    0.0710 C   0  0  0  0  0  0  0  0  0  0  0  0
   -4.1250    3.2650    0.7200 C   0  0  0  0  0  0  0  0  0  0  0  0
   -4.1850   -0.9980    1.5900 C   0  0  1  0  0  0  0  0  0  0  0  0
    4.7200    0.3180    0.3830 C   0  0  0  0  0  0  0  0  0  0  0  0
    5.3730   -0.9860   -0.0790 C   0  0  0  0  0  0  0  0  0  0  0  0
    6.7100   -0.6750   -0.7560 C   0  0  0  0  0  0  0  0  0  0  0  0
    7.6320    0.0340    0.2380 C   0  0  0  0  0  0  0  0  0  0  0  0
    8.9680    0.3450   -0.4380 C   0  0  0  0  0  0  0  0  0  0  0  0
   -0.0370   -0.3070   -0.0860 C   0  0  1  0  0  0  0  0  0  0  0  0
    9.9340    0.9400    0.5890 C   0  0  0  0  0  0  0  0  0  0  0  0
   11.2700    1.2520   -0.0880 C   0  0  0  0  0  0  0  0  0  0  0  0
    6.9780    1.3370    0.7010 C   0  0  0  0  0  0  0  0  0  0  0  0
    5.6420    1.0260    1.3770 C   0  0  0  0  0  0  0  0  0  0  0  0
   -0.1710   -1.6930   -0.7200 C   0  0  0  0  0  0  0  0  0  0  0  0
    1.0110   -1.9420   -1.6580 C   0  0  0  0  0  0  0  0  0  0  0  0
    0.9440   -3.3730   -2.1960 C   0  0  0  0  0  0  0  0  0  0  0  0
    0.9520   -0.9550   -2.8260 C   0  0  0  0  0  0  0  0  0  0  0  0
   -1.2610   -0.0120    0.7410 C   0  0  0  0  0  0  0  0  0  0  0  0
   -3.6670    0.2990    0.9650 C   0  0  2  0  0  0  0  0  0  0  0  0
   -4.7530    0.9040    0.0730 C   0  0  0  0  0  0  0  0  0  0  0  0
    1.1510   -0.2760    0.7710 N   0  0  0  0  0  0  0  0  0  0  0  0
   -2.4770    0.0120    0.1610 N   0  0  0  0  0  0  0  0  0  0  0  0
   -5.5020    4.1860   -1.0130 N   0  0  0  0  0  0  0  0  0  0  0  0
    2.4630    0.2130   -0.9530 O   0  0  0  0  0  0  0  0  0  0  0  0
   -5.9600    2.3050   -2.1950 O   0  0  0  0  0  0  0  0  0  0  0  0
   -5.4100   -0.7390    2.2790 O   0  0  0  0  0  0  0  0  0  0  0  0
   -1.1520    0.2030    1.9300 O   0  0  0  0  0  0  0  0  0  0  0  0
    3.4510    0.0220    1.0250 O   0  0  0  0  0  0  0  0  0  0  0  0
   -3.3470    2.1610   -0.9930 H   0  0  0  0  0  0  0  0  0  0  0  0
   -5.1290    5.1950    0.8010 H   0  0  0  0  0  0  0  0  0  0  0  0
   -3.7440    5.1340   -0.3290 H   0  0  0  0  0  0  0  0  0  0  0  0
   -4.7660    2.9910    1.5590 H   0  0  0  0  0  0  0  0  0  0  0  0
   -3.0830    3.3350    1.0340 H   0  0  0  0  0  0  0  0  0  0  0  0
   -4.4720   -2.2260    0.2850 S   0  0  0  0  0  0  0  0  0  0  0  0
   -3.4470   -1.3830    2.2940 H   0  0  0  0  0  0  0  0  0  0  0  0
    4.5490    0.9640   -0.4780 H   0  0  0  0  0  0  0  0  0  0  0  0
    5.5440   -1.6320    0.7820 H   0  0  0  0  0  0  0  0  0  0  0  0
    4.7160   -1.4910   -0.7880 H   0  0  0  0  0  0  0  0  0  0  0  0
    7.1760   -1.6030   -1.0850 H   0  0  0  0  0  0  0  0  0  0  0  0
    6.5390   -0.0290   -1.6170 H   0  0  0  0  0  0  0  0  0  0  0  0
    7.8030   -0.6120    1.0990 H   0  0  0  0  0  0  0  0  0  0  0  0
    9.3920   -0.5720   -0.8460 H   0  0  0  0  0  0  0  0  0  0  0  0
    8.8090    1.0610   -1.2450 H   0  0  0  0  0  0  0  0  0  0  0  0
    0.0610    0.4430   -0.8710 H   0  0  0  0  0  0  0  0  0  0  0  0
    9.5100    1.8580    0.9970 H   0  0  0  0  0  0  0  0  0  0  0  0
   10.0930    0.2240    1.3950 H   0  0  0  0  0  0  0  0  0  0  0  0
   11.9580    1.6760    0.6440 H   0  0  0  0  0  0  0  0  0  0  0  0
   11.6940    0.3340   -0.4950 H   0  0  0  0  0  0  0  0  0  0  0  0
   11.1110    1.9680   -0.8940 H   0  0  0  0  0  0  0  0  0  0  0  0
    7.6350    1.8420    1.4090 H   0  0  0  0  0  0  0  0  0  0  0  0
    6.8080    1.9840   -0.1610 H   0  0  0  0  0  0  0  0  0  0  0  0
    5.1760    1.9550    1.7070 H   0  0  0  0  0  0  0  0  0  0  0  0
    5.8120    0.3800    2.2380 H   0  0  0  0  0  0  0  0  0  0  0  0
   -0.1800   -2.4520    0.0630 H   0  0  0  0  0  0  0  0  0  0  0  0
   -1.1010   -1.7450   -1.2860 H   0  0  0  0  0  0  0  0  0  0  0  0
    1.9440   -1.8030   -1.1120 H   0  0  0  0  0  0  0  0  0  0  0  0
    0.0110   -3.5120   -2.7420 H   0  0  0  0  0  0  0  0  0  0  0  0
    1.7860   -3.5500   -2.8640 H   0  0  0  0  0  0  0  0  0  0  0  0
    0.9860   -4.0760   -1.3640 H   0  0  0  0  0  0  0  0  0  0  0  0
    1.0000    0.0640   -2.4430 H   0  0  0  0  0  0  0  0  0  0  0  0
    1.7950   -1.1330   -3.4950 H   0  0  0  0  0  0  0  0  0  0  0  0
    0.0190   -1.0940   -3.3730 H   0  0  0  0  0  0  0  0  0  0  0  0
   -3.4110    1.0050    1.7550 H   0  0  0  0  0  0  0  0  0  0  0  0
   -5.6690    1.0310    0.6500 H   0  0  0  0  0  0  0  0  0  0  0  0
   -4.9430    0.2380   -0.7690 H   0  0  0  0  0  0  0  0  0  0  0  0
    1.0680   -0.4480    1.7220 H   0  0  0  0  0  0  0  0  0  0  0  0
   -2.5640   -0.1600   -0.7900 H   0  0  0  0  0  0  0  0  0  0  0  0
   -6.1320    4.7820   -1.4470 H   0  0  0  0  0  0  0  0  0  0  0  0
   -6.1140   -0.3950    1.7130 H   0  0  0  0  0  0  0  0  0  0  0  0
   -5.4890   -1.7810   -0.6030 O   0  0  0  0  0  0  0  0  0  0  0  0
   -3.2380   -2.7280   -0.2070 O   0  0  0  0  0  0  0  0  0  0  0  0
   -5.0980   -3.4090    1.0090 O   0  0  0  0  0  0  0  0  0  0  0  0
   -5.3110   -4.1550    0.4310 H   0  0  0  0  0  0  0  0  0  0  0  0
  3 28  2  0  0  0  0
  3 26  1  0  0  0  0
  2  3  1  0  0  0  0
  4 26  1  0  0  0  0
  2 23  1  0  0  0  0
 22 23  1  0  0  0  0
  2  5  1  0  0  0  0
  6 29  1  0  0  0  0
  6 22  1  0  0  0  0
  4  5  1  0  0  0  0
 22 25  1  0  0  0  0
 21 25  1  0  0  0  0
  1 27  2  0  0  0  0
 12 21  1  0  0  0  0
 21 30  2  0  0  0  0
 18 19  1  0  0  0  0
 12 24  1  0  0  0  0
 12 17  1  0  0  0  0
  1 24  1  0  0  0  0
  1 31  1  0  0  0  0
 15 16  1  0  0  0  0
 10 15  1  0  0  0  0
  7 16  1  0  0  0  0
  7 31  1  0  0  0  0
  7  8  1  0  0  0  0
 10 11  1  0  0  0  0
 11 13  1  0  0  0  0
  9 10  1  0  0  0  0
  8  9  1  0  0  0  0
 17 18  1  0  0  0  0
 18 20  1  0  0  0  0
 13 14  1  0  0  0  0
  2 32  1  0  0  0  0
  4 33  1  0  0  0  0
  4 34  1  0  0  0  0
  5 35  1  0  0  0  0
  5 36  1  0  0  0  0
  6 37  1  0  0  0  0
  6 38  1  0  0  0  0
  7 39  1  0  0  0  0
  8 40  1  0  0  0  0
  8 41  1  0  0  0  0
  9 42  1  0  0  0  0
  9 43  1  0  0  0  0
 10 44  1  0  0  0  0
 11 45  1  0  0  0  0
 11 46  1  0  0  0  0
 12 47  1  0  0  0  0
 13 48  1  0  0  0  0
 13 49  1  0  0  0  0
 14 50  1  0  0  0  0
 14 51  1  0  0  0  0
 14 52  1  0  0  0  0
 15 53  1  0  0  0  0
 15 54  1  0  0  0  0
 16 55  1  0  0  0  0
 16 56  1  0  0  0  0
 17 57  1  0  0  0  0
 17 58  1  0  0  0  0
 18 59  1  0  0  0  0
 19 60  1  0  0  0  0
 19 61  1  0  0  0  0
 19 62  1  0  0  0  0
 20 63  1  0  0  0  0
 20 64  1  0  0  0  0
 20 65  1  0  0  0  0
 22 66  1  0  0  0  0
 23 67  1  0  0  0  0
 23 68  1  0  0  0  0
 24 69  1  0  0  0  0
 25 70  1  0  0  0  0
 26 71  1  0  0  0  0
 29 72  1  0  0  0  0
 37 73  2  0  0  0  0
 37 74  2  0  0  0  0
 37 75  1  0  0  0  0
 75 76  1  0  0  0  0
M  END
> <OPENEYE_ISO_SMILES>
CCCC1CCC(CC1)OC(=O)N[C@@H](CC(C)C)C(=O)N[C@@H](C[C@@H]2CCNC2=O)[C@@H](O)S(=O)(=O)O

> <OPENEYE_INCHI>
InChI=1S/C23H41N3O8S/c1-4-5-15-6-8-17(9-7-15)34-23(30)26-18(12-14(2)3)21(28)25-19(22(29)35(31,32)33)13-16-10-11-24-20(16)27/h14-19,22,29H,4-13H2,1-3H3,(H,24,27)(H,25,28)(H,26,30)(H,31,32,33)/t15-,16-,17-,18-,19-,22-/m0/s1

> <OPENEYE_INCHIKEY>
VCQYBHSDNWQLAS-LXYCOOOUSA-N

> <FORMULA>
C23H41N3O8S

$$$$
