YVA
  -OEChem-02242320043D

 71 73  0     1  0  0  0  0  0999 V2000
    3.7830    3.6600   -0.7900 C   0  0  0  0  0  0  0  0  0  0  0  0
    4.5510    0.2340    0.4710 C   0  0  0  0  0  0  0  0  0  0  0  0
    5.9260   -1.6710   -0.3220 C   0  0  0  0  0  0  0  0  0  0  0  0
    7.4950   -3.3810   -0.8660 C   0  0  0  0  0  0  0  0  0  0  0  0
    7.6110   -4.6120   -1.7680 C   0  0  0  0  0  0  0  0  0  0  0  0
    4.4760    5.5710    0.3340 C   0  0  0  0  0  0  0  0  0  0  0  0
   -0.8760   -3.1530    0.7890 C   0  0  0  0  0  0  0  0  0  0  0  0
   -1.7520   -3.8590   -0.2490 C   0  0  0  0  0  0  0  0  0  0  0  0
   -5.0790   -0.6500    0.8920 C   0  0  0  0  0  0  0  0  0  0  0  0
   -2.6430   -0.6970    0.8530 C   0  0  0  0  0  0  0  0  0  0  0  0
   -0.2070   -0.7460    0.8160 C   0  0  1  0  0  0  0  0  0  0  0  0
    0.1440   -2.1350    0.2780 C   0  0  0  0  0  0  0  0  0  0  0  0
    3.1970    0.9330    0.3340 C   0  0  2  0  0  0  0  0  0  0  0  0
    3.2000    2.2170    1.1660 C   0  0  0  0  0  0  0  0  0  0  0  0
    4.2180    3.2000    0.5840 C   0  0  2  0  0  0  0  0  0  0  0  0
    4.5930   -0.9820   -0.4570 C   0  0  0  0  0  0  0  0  0  0  0  0
    0.8640    0.2350    0.4140 C   0  0  0  0  0  0  0  0  0  0  0  0
    4.2590    4.4970    1.4230 C   0  0  0  0  0  0  0  0  0  0  0  0
   -0.6320   -4.6260    0.4560 C   0  0  0  0  0  0  0  0  0  0  0  0
   -3.9280   -0.2700    0.2980 C   0  0  0  0  0  0  0  0  0  0  0  0
   -8.7970    0.5870   -0.7130 C   0  0  0  0  0  0  0  0  0  0  0  0
   -8.7630   -0.2140    0.4310 C   0  0  0  0  0  0  0  0  0  0  0  0
   -7.5640   -0.6140    0.9500 C   0  0  0  0  0  0  0  0  0  0  0  0
   -6.3700   -0.2210    0.3350 C   0  0  0  0  0  0  0  0  0  0  0  0
   -6.4060    0.5820   -0.8120 C   0  0  0  0  0  0  0  0  0  0  0  0
   -7.6060    0.9760   -1.3320 C   0  0  0  0  0  0  0  0  0  0  0  0
  -10.0550    1.0060   -1.2560 C   0  0  0  0  0  0  0  0  0  0  0  0
  -11.0860    1.3490   -1.7010 C   0  0  0  0  0  0  0  0  0  0  0  0
   -1.4940   -0.3180    0.2600 N   0  0  0  0  0  0  0  0  0  0  0  0
    2.1370    0.0430    0.8140 N   0  0  0  0  0  0  0  0  0  0  0  0
    3.9380    4.9910   -0.9020 N   0  0  0  0  0  0  0  0  0  0  0  0
   -2.6120   -1.3950    1.8500 O   0  0  0  0  0  0  0  0  0  0  0  0
    3.3610    2.9340   -1.6650 O   0  0  0  0  0  0  0  0  0  0  0  0
    6.1900   -2.7700   -1.0470 O   0  0  0  0  0  0  0  0  0  0  0  0
    6.7580   -1.2350    0.4380 O   0  0  0  0  0  0  0  0  0  0  0  0
    0.5810    1.1960   -0.2690 O   0  0  0  0  0  0  0  0  0  0  0  0
    5.3470    0.9260    0.1980 H   0  0  0  0  0  0  0  0  0  0  0  0
    4.6900   -0.0910    1.5020 H   0  0  0  0  0  0  0  0  0  0  0  0
    7.6150   -3.6810    0.1750 H   0  0  0  0  0  0  0  0  0  0  0  0
    8.2720   -2.6630   -1.1290 H   0  0  0  0  0  0  0  0  0  0  0  0
    6.8340   -5.3290   -1.5050 H   0  0  0  0  0  0  0  0  0  0  0  0
    7.4910   -4.3120   -2.8090 H   0  0  0  0  0  0  0  0  0  0  0  0
    8.5900   -5.0700   -1.6320 H   0  0  0  0  0  0  0  0  0  0  0  0
    3.9400    6.4860    0.5860 H   0  0  0  0  0  0  0  0  0  0  0  0
    5.5410    5.7760    0.2220 H   0  0  0  0  0  0  0  0  0  0  0  0
   -1.3270   -2.9230    1.7550 H   0  0  0  0  0  0  0  0  0  0  0  0
   -2.7780   -4.0930    0.0340 H   0  0  0  0  0  0  0  0  0  0  0  0
   -1.6010   -3.5960   -1.2960 H   0  0  0  0  0  0  0  0  0  0  0  0
   -5.0520   -1.2690    1.7760 H   0  0  0  0  0  0  0  0  0  0  0  0
   -0.2760   -0.7840    1.9030 H   0  0  0  0  0  0  0  0  0  0  0  0
    1.1400   -2.4150    0.6190 H   0  0  0  0  0  0  0  0  0  0  0  0
    0.1260   -2.1170   -0.8120 H   0  0  0  0  0  0  0  0  0  0  0  0
    3.0190    1.1790   -0.7130 H   0  0  0  0  0  0  0  0  0  0  0  0
    2.2080    2.6670    1.1440 H   0  0  0  0  0  0  0  0  0  0  0  0
    3.4700    1.9820    2.1960 H   0  0  0  0  0  0  0  0  0  0  0  0
    5.2060    2.7420    0.5380 H   0  0  0  0  0  0  0  0  0  0  0  0
    3.7970   -1.6750   -0.1840 H   0  0  0  0  0  0  0  0  0  0  0  0
    4.4540   -0.6570   -1.4880 H   0  0  0  0  0  0  0  0  0  0  0  0
    5.0900    4.4840    2.1280 H   0  0  0  0  0  0  0  0  0  0  0  0
    3.3130    4.6540    1.9420 H   0  0  0  0  0  0  0  0  0  0  0  0
    0.2560   -4.8700   -0.1270 H   0  0  0  0  0  0  0  0  0  0  0  0
   -0.9210   -5.3660    1.2030 H   0  0  0  0  0  0  0  0  0  0  0  0
   -3.9550    0.3490   -0.5860 H   0  0  0  0  0  0  0  0  0  0  0  0
   -9.6840   -0.5170    0.9060 H   0  0  0  0  0  0  0  0  0  0  0  0
   -7.5380   -1.2330    1.8350 H   0  0  0  0  0  0  0  0  0  0  0  0
   -5.4850    0.8870   -1.2870 H   0  0  0  0  0  0  0  0  0  0  0  0
   -7.6340    1.5920   -2.2190 H   0  0  0  0  0  0  0  0  0  0  0  0
  -12.0080    1.6560   -2.0990 H   0  0  0  0  0  0  0  0  0  0  0  0
   -1.5180    0.2380   -0.5340 H   0  0  0  0  0  0  0  0  0  0  0  0
    2.3510   -0.6840    1.4190 H   0  0  0  0  0  0  0  0  0  0  0  0
    3.7170    5.5030   -1.6960 H   0  0  0  0  0  0  0  0  0  0  0  0
  6 31  1  0  0  0  0
  6 18  1  0  0  0  0
  1 31  1  0  0  0  0
 15 18  1  0  0  0  0
  1 33  2  0  0  0  0
  1 15  1  0  0  0  0
  4  5  1  0  0  0  0
  3 35  2  0  0  0  0
 14 15  1  0  0  0  0
 13 14  1  0  0  0  0
  3 16  1  0  0  0  0
  3 34  1  0  0  0  0
  4 34  1  0  0  0  0
  2 13  1  0  0  0  0
 13 30  1  0  0  0  0
  2 16  1  0  0  0  0
 17 36  2  0  0  0  0
 17 30  1  0  0  0  0
 11 17  1  0  0  0  0
 10 32  2  0  0  0  0
 22 23  2  0  0  0  0
 23 24  1  0  0  0  0
 21 22  1  0  0  0  0
 10 20  1  0  0  0  0
 10 29  1  0  0  0  0
  9 20  2  0  0  0  0
 11 29  1  0  0  0  0
 11 12  1  0  0  0  0
  9 24  1  0  0  0  0
 24 25  2  0  0  0  0
 21 27  1  0  0  0  0
 21 26  2  0  0  0  0
 27 28  3  0  0  0  0
  7 12  1  0  0  0  0
 25 26  1  0  0  0  0
  7 19  1  0  0  0  0
  7  8  1  0  0  0  0
  8 19  1  0  0  0  0
  2 37  1  0  0  0  0
  2 38  1  0  0  0  0
  4 39  1  0  0  0  0
  4 40  1  0  0  0  0
  5 41  1  0  0  0  0
  5 42  1  0  0  0  0
  5 43  1  0  0  0  0
  6 44  1  0  0  0  0
  6 45  1  0  0  0  0
  7 46  1  0  0  0  0
  8 47  1  0  0  0  0
  8 48  1  0  0  0  0
  9 49  1  0  0  0  0
 11 50  1  0  0  0  0
 12 51  1  0  0  0  0
 12 52  1  0  0  0  0
 13 53  1  0  0  0  0
 14 54  1  0  0  0  0
 14 55  1  0  0  0  0
 15 56  1  0  0  0  0
 16 57  1  0  0  0  0
 16 58  1  0  0  0  0
 18 59  1  0  0  0  0
 18 60  1  0  0  0  0
 19 61  1  0  0  0  0
 19 62  1  0  0  0  0
 20 63  1  0  0  0  0
 22 64  1  0  0  0  0
 23 65  1  0  0  0  0
 25 66  1  0  0  0  0
 26 67  1  0  0  0  0
 28 68  1  0  0  0  0
 29 69  1  0  0  0  0
 30 70  1  0  0  0  0
 31 71  1  0  0  0  0
M  END
> <OPENEYE_ISO_SMILES>
CCOC(=O)CC[C@H](C[C@@H]1CCNC1=O)NC(=O)[C@H](CC2CC2)NC(=O)/C=C/c3ccc(cc3)C#C

> <OPENEYE_INCHI>
InChI=1S/C28H35N3O5/c1-3-19-5-7-20(8-6-19)11-13-25(32)31-24(17-21-9-10-21)28(35)30-23(12-14-26(33)36-4-2)18-22-15-16-29-27(22)34/h1,5-8,11,13,21-24H,4,9-10,12,14-18H2,2H3,(H,29,34)(H,30,35)(H,31,32)/b13-11+/t22-,23+,24-/m0/s1

> <OPENEYE_INCHIKEY>
JMWBRPAKKKBHFQ-NQRMBFEXSA-N

> <FORMULA>
C28H35N3O5

$$$$
