@<TRIPOS>MOLECULE
/home/pku/3cl/gett_pdb/8ERS/8ERS_mol2/ligand/8ERS_WQO.pdb
 37 39 0 0 0
SMALL
GASTEIGER

@<TRIPOS>ATOM
      1  C18      -45.8340  -25.7980   -0.6830 C.ar  201  WQO201     -0.0614
      2  C16      -45.3960  -27.7170    0.6570 C.ar  201  WQO201     -0.0034
      3  C17      -46.3050  -26.8200    0.1120 C.ar  201  WQO201     -0.0548
      4  C15      -44.0300  -27.5820    0.3960 C.ar  201  WQO201     -0.0399
      5  C14      -43.2670  -28.7180    1.1020 C.3   201  WQO201     -0.0156
      6  C11      -44.0790  -30.6730    2.4830 C.2   201  WQO201      0.0490
      7  C10      -44.2690  -29.2030    2.1310 C.3   201  WQO201      0.0438
      8  C20      -43.5710  -26.5560   -0.4060 C.ar  201  WQO201     -0.0582
      9  C19      -44.4890  -25.6730   -0.9370 C.ar  201  WQO201     -0.0615
     10  C02      -49.8890  -28.9350    6.2820 C.ar  201  WQO201      0.0281
     11  C03      -50.6050  -28.9840    5.1030 C.ar  201  WQO201      0.0013
     12  C04      -49.9100  -28.9090    3.9210 C.ar  201  WQO201      0.1326
     13  C06      -48.5380  -28.7760    3.8970 C.ar  201  WQO201      0.1004
     14  C07      -47.8180  -28.7370    2.5690 C.2   201  WQO201      0.3433
     15  C09      -45.6250  -28.9320    1.5670 C.3   201  WQO201      0.1368
     16  C22      -47.8310  -28.7350    5.0820 C.ar  201  WQO201     -0.0425
     17  C23      -48.5130  -28.8070    6.2830 C.ar  201  WQO201     -0.0400
     18  N01      -50.5960  -29.0310    7.5220 N.pl3 201  WQO201     -0.3579
     19  O05      -50.6460  -28.9530    2.7500 O.3   201  WQO201     -0.5059
     20  O08      -46.4440  -28.6420    2.6710 O.3   201  WQO201     -0.4523
     21  O12      -43.3760  -30.9710    3.4740 O.co2 201  WQO201     -0.5494
     22  O13      -44.6350  -31.5640    1.8030 O.co2 201  WQO201     -0.5494
     23  O21      -48.3530  -28.8310    1.5160 O.2   201  WQO201     -0.2448
     24 H181      -46.4420  -25.2050   -1.0630 H     201  WQO201      0.0618
     25 H171      -47.2210  -26.9210    0.2740 H     201  WQO201      0.0622
     26 H142      -42.4900  -28.3470    1.5470 H     201  WQO201      0.0321
     27 H141      -43.0590  -29.4190    0.4660 H     201  WQO201      0.0321
     28 H101      -44.1880  -28.6690    2.9240 H     201  WQO201      0.0403
     29 H201      -42.6760  -26.4720   -0.5880 H     201  WQO201      0.0620
     30 H191      -44.2350  -24.9950   -1.4750 H     201  WQO201      0.0618
     31 H031      -51.5470  -29.1150    5.0910 H     201  WQO201      0.0673
     32 H091      -45.9860  -29.6920    1.0580 H     201  WQO201      0.0792
     33 H221      -46.9060  -28.6380    5.0660 H     201  WQO201      0.0627
     34 H231      -48.0570  -28.7740    7.0870 H     201  WQO201      0.0636
     35 H012      -50.9300  -28.3300    7.8630 H     201  WQO201      0.1423
     36 H011      -50.7450  -29.8080    7.8720 H     201  WQO201      0.1423
     37 H051      -50.1610  -29.1050    2.0820 H     201  WQO201      0.2922
@<TRIPOS>UNITY_ATOM_ATTR
21 1
charge -1
@<TRIPOS>BOND
     1    30     9    1
     2    24     1    1
     3     9     1   ar
     4     9     8   ar
     5     1     3   ar
     6    29     8    1
     7     8     4   ar
     8     3    25    1
     9     3     2   ar
    10     4     2   ar
    11     4     5    1
    12    27     5    1
    13     2    15    1
    14    32    15    1
    15     5    26    1
    16     5     7    1
    17    23    14    2
    18    15     7    1
    19    15    20    1
    20    22     6   ar
    21    37    19    1
    22     7     6    1
    23     7    28    1
    24     6    21   ar
    25    14    20    1
    26    14    13    1
    27    19    12    1
    28    13    12   ar
    29    13    16   ar
    30    12    11   ar
    31    33    16    1
    32    16    17   ar
    33    31    11    1
    34    11    10   ar
    35    10    17   ar
    36    10    18    1
    37    17    34    1
    38    18    35    1
    39    18    36    1
