VXD
  -OEChem-02242320043D

 24 24  0     0  0  0  0  0  0999 V2000
   -1.3460    0.5930   -0.5340 N   0  0  0  0  0  0  0  0  0  0  0  0
    2.1750   -1.5660    0.0180 C   0  0  0  0  0  0  0  0  0  0  0  0
    0.9790   -2.2330   -0.1750 C   0  0  0  0  0  0  0  0  0  0  0  0
   -0.1900   -1.5200   -0.3580 C   0  0  0  0  0  0  0  0  0  0  0  0
   -0.1640   -0.1310   -0.3480 C   0  0  0  0  0  0  0  0  0  0  0  0
   -2.5100    0.1200   -0.0470 C   0  0  0  0  0  0  0  0  0  0  0  0
    1.0700    2.0430   -0.1360 C   0  0  0  0  0  0  0  0  0  0  0  0
    1.0380    0.5360   -0.1540 C   0  0  0  0  0  0  0  0  0  0  0  0
    2.2040   -0.1820    0.0340 C   0  0  0  0  0  0  0  0  0  0  0  0
   -3.7640    0.9500   -0.1510 C   0  0  0  0  0  0  0  0  0  0  0  0
   -4.8870    0.2170    0.4490 N   0  0  0  0  0  0  0  0  0  0  0  0
   -2.5490   -0.9740    0.4760 O   0  0  0  0  0  0  0  0  0  0  0  0
    3.7050    0.6510    0.2920 Cl  0  0  0  0  0  0  0  0  0  0  0  0
   -1.3270    1.4380   -1.0100 H   0  0  0  0  0  0  0  0  0  0  0  0
    3.0870   -2.1260    0.1610 H   0  0  0  0  0  0  0  0  0  0  0  0
    0.9590   -3.3130   -0.1820 H   0  0  0  0  0  0  0  0  0  0  0  0
   -1.1230   -2.0420   -0.5090 H   0  0  0  0  0  0  0  0  0  0  0  0
    1.2470    2.4150   -1.1460 H   0  0  0  0  0  0  0  0  0  0  0  0
    0.1150    2.4220    0.2290 H   0  0  0  0  0  0  0  0  0  0  0  0
    1.8710    2.3820    0.5210 H   0  0  0  0  0  0  0  0  0  0  0  0
   -3.6210    1.8920    0.3780 H   0  0  0  0  0  0  0  0  0  0  0  0
   -3.9800    1.1510   -1.2000 H   0  0  0  0  0  0  0  0  0  0  0  0
   -4.6840   -0.0380    1.4040 H   0  0  0  0  0  0  0  0  0  0  0  0
   -5.7400    0.7530    0.3910 H   0  0  0  0  0  0  0  0  0  0  0  0
  7  8  1  0  0  0  0
  8  9  2  0  0  0  0
  2  9  1  0  0  0  0
  2  3  2  0  0  0  0
  3  4  1  0  0  0  0
  4  5  2  0  0  0  0
  1  5  1  0  0  0  0
  1  6  1  0  0  0  0
  6 12  2  0  0  0  0
  6 10  1  0  0  0  0
 10 11  1  0  0  0  0
  5  8  1  0  0  0  0
  1 14  1  0  0  0  0
  2 15  1  0  0  0  0
  3 16  1  0  0  0  0
  4 17  1  0  0  0  0
  7 18  1  0  0  0  0
  7 19  1  0  0  0  0
  7 20  1  0  0  0  0
 10 21  1  0  0  0  0
 10 22  1  0  0  0  0
 11 23  1  0  0  0  0
 11 24  1  0  0  0  0
  9 13  1  0  0  0  0
M  END
> <OPENEYE_ISO_SMILES>
Cc1c(cccc1Cl)NC(=O)CN

> <OPENEYE_INCHI>
InChI=1S/C9H11ClN2O/c1-6-7(10)3-2-4-8(6)12-9(13)5-11/h2-4H,5,11H2,1H3,(H,12,13)

> <OPENEYE_INCHIKEY>
FPQHYOUXKZRHSA-UHFFFAOYSA-N

> <FORMULA>
C9H11ClN2O

$$$$
