@<TRIPOS>MOLECULE
/home/pku/3cl/gett_pdb/8E25/8E25_mol2/ligand/8E25_4WI.pdb
 68 70 0 0 0
SMALL
GASTEIGER

@<TRIPOS>ATOM
      1  C8       -17.0950    5.1710   25.7460 C.2   401  4WI401      0.2162
      2  C3       -21.2050    2.7120   24.6010 C.2   401  4WI401      0.0750
      3  C1       -21.8080    4.3030   27.7470 C.2   401  4WI401      0.2344
      4  C13      -20.5880    5.5560   30.1980 C.2   401  4WI401      0.2371
      5  C21      -19.9890    6.1220   33.3350 C.2   401  4WI401      0.3179
      6  C6       -19.0860    6.4450   25.4930 C.3   401  4WI401     -0.0262
      7  C7       -17.8590    7.3520   25.4840 C.3   401  4WI401      0.0123
      8  C10      -23.0570    5.5050   30.7320 C.3   401  4WI401      0.0192
      9  C5       -18.5770    5.1340   26.0670 C.3   401  4WI401      0.0390
     10  C9       -22.0170    3.8730   29.1990 C.3   401  4WI401      0.1058
     11  C11      -24.0830    4.4340   30.4080 C.3   401  4WI401     -0.0142
     12  C12      -23.4490    3.4160   29.4820 C.3   401  4WI401     -0.0037
     13  C18      -23.8800    3.0150   30.8800 C.3   401  4WI401     -0.0250
     14  C19      -25.1630    2.2550   31.1450 C.3   401  4WI401     -0.0592
     15  C20      -22.8060    2.6990   31.9030 C.3   401  4WI401     -0.0592
     16  C16      -18.6880    7.7950   29.4340 C.3   401  4WI401     -0.0579
     17  C17      -21.0960    8.4010   29.2110 C.3   401  4WI401     -0.0579
     18  C23      -19.7680    9.2310   31.1640 C.3   401  4WI401     -0.0579
     19  C4       -19.1960    3.8390   25.5510 C.3   401  4WI401     -0.0177
     20  C2       -20.7260    3.7530   25.6050 C.3   401  4WI401      0.0672
     21  C14      -20.4260    6.8240   31.0380 C.3   401  4WI401      0.1047
     22  C22      -18.9680    5.9610   34.4710 C.3   401  4WI401      0.4694
     23  C15      -19.9880    8.0480   30.2120 C.3   401  4WI401     -0.0108
     24  N5       -21.7620    2.9120   23.4790 N.2   401  4WI401     -0.3003
     25  N2       -16.7380    6.4170   25.5240 N.am  401  4WI401     -0.3151
     26  N3       -21.8240    5.0330   30.0790 N.am  401  4WI401     -0.2878
     27  N1       -21.2040    3.4120   26.9440 N.am  401  4WI401     -0.3054
     28  N4       -19.5340    6.5400   32.1520 N.am  401  4WI401     -0.2962
     29  O1       -16.3530    4.1940   25.6820 O.2   401  4WI401     -0.2755
     30  O2       -22.1000    5.4420   27.3810 O.2   401  4WI401     -0.2737
     31  O3       -19.6160    5.0270   29.6450 O.2   401  4WI401     -0.2735
     32  O4       -21.1570    5.8810   33.5670 O.2   401  4WI401     -0.2660
     33  F1       -18.4180    4.7570   34.4720 F     401  4WI401     -0.1620
     34  F2       -17.9740    6.8390   34.3860 F     401  4WI401     -0.1620
     35  F3       -19.5280    6.1260   35.6640 F     401  4WI401     -0.1620
     36  H5       -19.4330    6.3210   24.5860 H     401  4WI401      0.0288
     37  H6       -19.7930    6.8240   26.0540 H     401  4WI401      0.0288
     38  H7       -17.8510    7.9460   26.2670 H     401  4WI401      0.0462
     39  H8       -17.8310    7.9030   24.6710 H     401  4WI401      0.0462
     40  H11      -22.9320    5.5860   31.7000 H     401  4WI401      0.0468
     41  H12      -23.3320    6.3740   30.3730 H     401  4WI401      0.0468
     42  H4       -18.6810    5.1590   27.0530 H     401  4WI401      0.0395
     43  H10      -21.3730    3.1600   29.4310 H     401  4WI401      0.0600
     44  H13      -25.0340    4.7210   30.2170 H     401  4WI401      0.0325
     45  H14      -24.0210    3.0330   28.7060 H     401  4WI401      0.0332
     46  H23      -25.6250    2.0960   30.3070 H     401  4WI401      0.0235
     47  H24      -25.7340    2.7760   31.7310 H     401  4WI401      0.0235
     48  H25      -24.9610    1.4050   31.5660 H     401  4WI401      0.0235
     49  H26      -21.9330    2.7940   31.5010 H     401  4WI401      0.0235
     50  H27      -22.9130    1.7900   32.2210 H     401  4WI401      0.0235
     51  H28      -22.8810    3.3110   32.6530 H     401  4WI401      0.0235
     52  H17      -18.3590    6.9010   29.6260 H     401  4WI401      0.0236
     53  H19      -18.8530    7.8780   28.4790 H     401  4WI401      0.0236
     54  H18      -18.0140    8.4440   29.6990 H     401  4WI401      0.0236
     55  H20      -21.8410    7.7840   29.3120 H     401  4WI401      0.0236
     56  H21      -20.7530    8.3410   28.3030 H     401  4WI401      0.0236
     57  H22      -21.4100    9.3070   29.3730 H     401  4WI401      0.0236
     58  H29      -19.9570    8.9570   32.0780 H     401  4WI401      0.0236
     59  H30      -20.3620    9.9630   30.9230 H     401  4WI401      0.0236
     60  H31      -18.8470    9.5360   31.1050 H     401  4WI401      0.0236
     61  H2       -18.9120    3.7110   24.6210 H     401  4WI401      0.0294
     62  H3       -18.8270    3.0940   26.0720 H     401  4WI401      0.0294
     63  H32      -21.1010    4.6300   25.3460 H     401  4WI401      0.0564
     64  H15      -21.3050    7.0590   31.4200 H     401  4WI401      0.0600
     65  H36      -21.9620    2.1450   23.0590 H     401  4WI401      0.1865
     66  H9       -15.9070    6.6530   25.4010 H     401  4WI401      0.1487
     67  H1       -21.0930    2.5980   27.2270 H     401  4WI401      0.1494
     68  H16      -18.6720    6.6390   32.0520 H     401  4WI401      0.1497
@<TRIPOS>BOND
     1    65    24    1
     2    24     2    2
     3    36     6    1
     4     2    20    1
     5    61    19    1
     6    39     7    1
     7    63    20    1
     8    66    25    1
     9     7     6    1
    10     7    25    1
    11     7    38    1
    12     6    37    1
    13     6     9    1
    14    25     1   am
    15    19    20    1
    16    19     9    1
    17    19    62    1
    18    20    27    1
    19    29     1    2
    20     1     9    1
    21     9    42    1
    22    27    67    1
    23    27     3   am
    24    30     3    2
    25     3    10    1
    26    56    17    1
    27    53    16    1
    28    45    12    1
    29    10    43    1
    30    10    12    1
    31    10    26    1
    32    17    55    1
    33    17    57    1
    34    17    23    1
    35    16    52    1
    36    16    54    1
    37    16    23    1
    38    12    11    1
    39    12    13    1
    40    31     4    2
    41    26     4   am
    42    26     8    1
    43     4    21    1
    44    23    21    1
    45    23    18    1
    46    44    11    1
    47    46    14    1
    48    41     8    1
    49    11     8    1
    50    11    13    1
    51     8    40    1
    52    13    14    1
    53    13    15    1
    54    59    18    1
    55    21    64    1
    56    21    28    1
    57    60    18    1
    58    14    48    1
    59    14    47    1
    60    18    58    1
    61    49    15    1
    62    15    50    1
    63    15    51    1
    64    68    28    1
    65    28     5   am
    66     5    32    2
    67     5    22    1
    68    34    22    1
    69    22    33    1
    70    22    35    1
