RJS
  -OEChem-02242320043D

 35 37  0     0  0  0  0  0  0999 V2000
   -6.1860    2.6810    0.0830 C   0  0  0  0  0  0  0  0  0  0  0  0
   -7.5030    0.7290    0.4800 C   0  0  0  0  0  0  0  0  0  0  0  0
   -7.4190    2.0720    0.3510 C   0  0  0  0  0  0  0  0  0  0  0  0
   -4.9480   -1.7250    0.2470 C   0  0  0  0  0  0  0  0  0  0  0  0
   -4.2450   -0.5310    0.0080 C   0  0  0  0  0  0  0  0  0  0  0  0
   -2.8100   -0.4030   -0.2650 C   0  0  0  0  0  0  0  0  0  0  0  0
   -5.1830    0.5160    0.0800 C   0  0  0  0  0  0  0  0  0  0  0  0
   -5.0710    1.9070   -0.0520 C   0  0  0  0  0  0  0  0  0  0  0  0
    3.5660    1.0690   -0.1600 C   0  0  0  0  0  0  0  0  0  0  0  0
    2.2030    0.8870   -0.0080 C   0  0  0  0  0  0  0  0  0  0  0  0
    1.7240   -0.2350    0.6440 C   0  0  0  0  0  0  0  0  0  0  0  0
    0.2400   -0.4330    0.8100 C   0  0  0  0  0  0  0  0  0  0  0  0
    2.6070   -1.1740    1.1440 C   0  0  0  0  0  0  0  0  0  0  0  0
    3.9690   -0.9930    0.9930 C   0  0  0  0  0  0  0  0  0  0  0  0
    4.4500    0.1270    0.3410 C   0  0  0  0  0  0  0  0  0  0  0  0
    4.0350    2.1610   -0.8020 F   0  0  0  0  0  0  0  0  0  0  0  0
   -2.0300   -1.5010   -0.3030 N   0  0  0  0  0  0  0  0  0  0  0  0
   -6.2070   -1.4370    0.4480 N   0  0  0  0  0  0  0  0  0  0  0  0
   -6.3940   -0.0530    0.3530 N   0  0  0  0  0  0  0  0  0  0  0  0
   -0.3460   -0.5640   -1.7900 O   0  0  0  0  0  0  0  0  0  0  0  0
    0.0710   -2.6920   -0.5990 O   0  0  0  0  0  0  0  0  0  0  0  0
   -2.3230    0.6970   -0.4560 O   0  0  0  0  0  0  0  0  0  0  0  0
   -0.4100   -1.3550   -0.6110 S   0  0  0  0  0  0  0  0  0  0  0  0
    6.3140    0.3740    0.1340 Br  0  0  0  0  0  0  0  0  0  0  0  0
   -6.1190    3.7540   -0.0200 H   0  0  0  0  0  0  0  0  0  0  0  0
   -8.4580    0.2700    0.6870 H   0  0  0  0  0  0  0  0  0  0  0  0
   -8.3070    2.6780    0.4560 H   0  0  0  0  0  0  0  0  0  0  0  0
   -4.5180   -2.7160    0.2620 H   0  0  0  0  0  0  0  0  0  0  0  0
   -4.1130    2.3600   -0.2590 H   0  0  0  0  0  0  0  0  0  0  0  0
    1.5130    1.6200   -0.3980 H   0  0  0  0  0  0  0  0  0  0  0  0
    0.0480   -0.9930    1.7250 H   0  0  0  0  0  0  0  0  0  0  0  0
   -0.2520    0.5380    0.8680 H   0  0  0  0  0  0  0  0  0  0  0  0
    2.2320   -2.0490    1.6530 H   0  0  0  0  0  0  0  0  0  0  0  0
    4.6580   -1.7280    1.3840 H   0  0  0  0  0  0  0  0  0  0  0  0
   -2.4180   -2.3770   -0.1510 H   0  0  0  0  0  0  0  0  0  0  0  0
  9 16  1  0  0  0  0
  9 10  2  0  0  0  0
  9 15  1  0  0  0  0
 10 11  1  0  0  0  0
 15 24  1  0  0  0  0
 14 15  2  0  0  0  0
 11 12  1  0  0  0  0
 11 13  2  0  0  0  0
 12 23  1  0  0  0  0
 13 14  1  0  0  0  0
 21 23  2  0  0  0  0
 20 23  2  0  0  0  0
 17 23  1  0  0  0  0
  6 22  2  0  0  0  0
  6 17  1  0  0  0  0
  5  6  1  0  0  0  0
  1  8  2  0  0  0  0
  7  8  1  0  0  0  0
  1  3  1  0  0  0  0
  5  7  2  0  0  0  0
  4  5  1  0  0  0  0
  7 19  1  0  0  0  0
  2  3  2  0  0  0  0
  4 18  2  0  0  0  0
  2 19  1  0  0  0  0
 18 19  1  0  0  0  0
  1 25  1  0  0  0  0
  2 26  1  0  0  0  0
  3 27  1  0  0  0  0
  4 28  1  0  0  0  0
  8 29  1  0  0  0  0
 10 30  1  0  0  0  0
 12 31  1  0  0  0  0
 12 32  1  0  0  0  0
 13 33  1  0  0  0  0
 14 34  1  0  0  0  0
 17 35  1  0  0  0  0
M  END
> <OPENEYE_ISO_SMILES>
c1ccn2c(c1)c(cn2)C(=O)NS(=O)(=O)Cc3ccc(c(c3)F)Br

> <OPENEYE_INCHI>
InChI=1S/C15H11BrFN3O3S/c16-12-5-4-10(7-13(12)17)9-24(22,23)19-15(21)11-8-18-20-6-2-1-3-14(11)20/h1-8H,9H2,(H,19,21)

> <OPENEYE_INCHIKEY>
LSGXMSZZZZALLZ-UHFFFAOYSA-N

> <FORMULA>
C15H11BrFN3O3S

$$$$
