@<TRIPOS>MOLECULE
/home/pku/3cl/gett_pdb/5SR9/5SR9_mol2/ligand/5SR9_R0H.pdb
 42 45 0 0 0
SMALL
GASTEIGER

@<TRIPOS>ATOM
      1  C18      -46.3610  -29.2540    6.2710 C.ar  201  R0H201      0.1442
      2  C15      -48.8320  -28.9830    3.5750 C.ar  201  R0H201     -0.0491
      3  C14      -50.2350  -28.9130    3.7430 C.ar  201  R0H201     -0.0257
      4  C13      -50.7910  -28.9520    5.0240 C.ar  201  R0H201      0.1254
      5  C12      -49.9570  -29.0520    6.1330 C.ar  201  R0H201     -0.0025
      6  C11      -48.5350  -29.1180    5.9580 C.ar  201  R0H201      0.0515
      7  C10      -47.9670  -29.0860    4.6870 C.ar  201  R0H201      0.0124
      8  C20      -44.0340  -29.3720    6.0160 C.ar  201  R0H201      0.1204
      9  C01      -44.6510  -33.4820   -0.8520 C.3   201  R0H201      0.0817
     10  C03      -45.1220  -31.6060    0.5430 C.2   201  R0H201      0.3169
     11  C04      -45.6270  -30.1070    0.4560 C.3   201  R0H201      0.1075
     12  C05      -44.4920  -29.0800    0.3230 C.3   201  R0H201     -0.0178
     13  C06      -44.1600  -28.6980    1.5750 C.3   201  R0H201      0.0147
     14  C08      -45.3340  -29.2060    4.0850 C.ar  201  R0H201      0.1344
     15  C09      -46.5280  -29.1770    4.8930 C.ar  201  R0H201      0.0663
     16  C22      -46.2890  -29.7020    1.8280 C.3   201  R0H201      0.0315
     17  C23      -46.6170  -30.0240   -0.6310 C.3   201  R0H201      0.0615
     18  F16      -52.1860  -28.8850    5.1890 F     201  R0H201     -0.2054
     19  N07      -45.3770  -29.1320    2.5670 N.pl3 201  R0H201     -0.3134
     20  N17      -47.5630  -29.2200    6.8750 N.ar  201  R0H201     -0.3389
     21  N19      -45.1050  -29.3530    6.7880 N.ar  201  R0H201     -0.2178
     22  N21      -44.1410  -29.2990    4.6840 N.ar  201  R0H201     -0.2200
     23  O02      -44.3030  -32.1710   -0.5310 O.3   201  R0H201     -0.4675
     24  O24      -46.6430  -28.7560   -1.2060 O.3   201  R0H201     -0.3939
     25  O25      -45.4390  -32.3030    1.4870 O.2   201  R0H201     -0.2501
     26 H151      -48.4530  -28.9490    2.5730 H     201  R0H201      0.0625
     27 H141      -50.8870  -28.8330    2.8610 H     201  R0H201      0.0646
     28 H121      -50.3780  -29.0820    7.1340 H     201  R0H201      0.0667
     29 H201      -43.0690  -29.4430    6.4730 H     201  R0H201      0.1048
     30 H011      -44.0180  -33.8260   -1.6450 H     201  R0H201      0.0661
     31 H013      -45.6640  -33.5210   -1.1730 H     201  R0H201      0.0661
     32 H012      -44.5320  -34.1160    0.0000 H     201  R0H201      0.0661
     33 H052      -43.6390  -29.5270   -0.1740 H     201  R0H201      0.0292
     34 H051      -44.8150  -28.1700   -0.2330 H     201  R0H201      0.0292
     35 H061      -44.0670  -27.6050    1.5930 H     201  R0H201      0.0464
     36 H062      -43.2240  -29.1550    1.8870 H     201  R0H201      0.0464
     37 H222      -47.0110  -28.9760    1.6070 H     201  R0H201      0.0476
     38 H221      -46.7180  -30.5440    2.3440 H     201  R0H201      0.0476
     39 H232      -47.6140  -30.2200   -0.2190 H     201  R0H201      0.0568
     40 H231      -46.4060  -30.7920   -1.4010 H     201  R0H201      0.0568
     41 H171      -47.7060  -29.2640    7.8510 H     201  R0H201      0.1673
     42 H241      -47.0860  -28.1460   -0.6040 H     201  R0H201      0.2094
@<TRIPOS>BOND
     1    30     9    1
     2    40    17    1
     3    24    17    1
     4    24    42    1
     5    31     9    1
     6     9    23    1
     7     9    32    1
     8    17    39    1
     9    17    11    1
    10    23    10    1
    11    34    12    1
    12    33    12    1
    13    12    11    1
    14    12    13    1
    15    11    10    1
    16    11    16    1
    17    10    25    2
    18    13    35    1
    19    13    36    1
    20    13    19    1
    21    37    16    1
    22    16    38    1
    23    16    19    1
    24    19    14    1
    25    26     2    1
    26    27     3    1
    27     2     3   ar
    28     2     7   ar
    29     3     4   ar
    30    14    22   ar
    31    14    15   ar
    32    22     8   ar
    33     7    15   ar
    34     7     6   ar
    35    15     1   ar
    36     4    18    1
    37     4     5   ar
    38     6     5   ar
    39     6    20   ar
    40     8    29    1
    41     8    21   ar
    42     5    28    1
    43     1    21   ar
    44     1    20   ar
    45    20    41    1
