@<TRIPOS>MOLECULE
/home/pku/3cl/gett_pdb/8DDM/8DDM_mol2/ligand/8DDM_K36.pdb
 29 30 0 0 0
SMALL
GASTEIGER

@<TRIPOS>ATOM
      1  C7         9.3700    3.9470   22.4320 C.3   401  K36401      0.2368
      2  O8        10.1120    2.8720   22.9210 O.3   401  K36401     -0.4285
      3  C9        10.0280    1.6850   22.1960 C.2   401  K36401      0.4218
      4  O10        9.7160    1.6820   21.0620 O.2   401  K36401     -0.2245
      5  C1         7.8870    3.8320   22.7860 C.ar  401  K36401      0.0213
      6  C2         7.3320    2.6340   23.2030 C.ar  401  K36401     -0.0007
      7  C3         5.9890    2.5560   23.5090 C.ar  401  K36401     -0.0002
      8  C4         5.1910    3.6780   23.4000 C.ar  401  K36401     -0.0000
      9  C5         5.7370    4.8770   22.9850 C.ar  401  K36401     -0.0002
     10  C6         7.0820    4.9510   22.6800 C.ar  401  K36401     -0.0007
     11  N11       10.3130    0.4460   22.8680 N.am  401  K36401     -0.1611
     12  C12       10.4130   -0.7760   22.1210 C.3   401  K36401      0.1761
     13  C17        9.0270   -1.3180   21.8320 C.2   401  K36401      0.2614
     14  O18        8.3240   -1.6210   22.7280 O.2   401  K36401     -0.2715
     15  C13       11.1350   -1.7950   22.9840 C.3   401  K36401      0.0312
     16  C14       12.5380   -1.2960   23.2890 C.3   401  K36401      0.0022
     17  C15       13.1560   -2.1780   24.3660 C.3   401  K36401      0.0001
     18  C16       13.3760   -1.3950   22.0210 C.3   401  K36401      0.0001
     19  N19        8.5800   -1.4640   20.4640 N.am  401  K36401     -0.2030
     20  C20        7.2700   -2.0000   20.1730 C.3   401  K36401      0.1287
     21  C21        7.4910   -3.4440   19.7460 C.3   401  K36401      0.2036
     22  O22        6.2730   -3.8720   19.1580 O.3   401  K36401     -0.2185
     23  C24        6.6340   -1.2150   19.0340 C.3   401  K36401      0.0335
     24  C25        6.5890    0.2950   19.3880 C.3   401  K36401      0.0818
     25  C26        5.6020    0.4810   20.4800 C.3   401  K36401      0.0326
     26  C27        4.8010    1.7380   20.1120 C.3   401  K36401      0.1156
     27  N28        5.0360    1.9710   18.6280 N.am  401  K36401     -0.2054
     28  C29        6.1310    1.0820   18.2010 C.2   401  K36401      0.2410
     29  O30        6.5620    1.0170   17.1110 O.2   401  K36401     -0.2734
@<TRIPOS>BOND
     1    29    28    2
     2    28    27   am
     3    28    24    1
     4    27    26    1
     5    23    24    1
     6    23    20    1
     7    22    21    1
     8    24    25    1
     9    21    20    1
    10    26    25    1
    11    20    19    1
    12    19    13   am
    13     4     3    2
    14    13    12    1
    15    13    14    2
    16    18    16    1
    17    12    11    1
    18    12    15    1
    19     3    11   am
    20     3     2    1
    21     1     5    1
    22     1     2    1
    23    10     5   ar
    24    10     9   ar
    25     5     6   ar
    26    15    16    1
    27     9     8   ar
    28     6     7   ar
    29    16    17    1
    30     8     7   ar
