UED
  -OEChem-02242320043D

 60 61  0     1  0  0  0  0  0999 V2000
    4.4180    0.1960   -0.9990 C   0  0  0  0  0  0  0  0  0  0  0  0
    3.4060   -0.1290   -0.0100 O   0  0  0  0  0  0  0  0  0  0  0  0
    2.1640   -0.3800   -0.4660 C   0  0  0  0  0  0  0  0  0  0  0  0
    1.9330   -0.3280   -1.6580 O   0  0  0  0  0  0  0  0  0  0  0  0
    5.7350    0.4430   -0.3080 C   0  0  0  0  0  0  0  0  0  0  0  0
    6.0640    1.7160    0.1170 C   0  0  0  0  0  0  0  0  0  0  0  0
    7.2720    1.9430    0.7500 C   0  0  0  0  0  0  0  0  0  0  0  0
    8.1500    0.8960    0.9590 C   0  0  0  0  0  0  0  0  0  0  0  0
    7.8200   -0.3780    0.5350 C   0  0  0  0  0  0  0  0  0  0  0  0
    6.6100   -0.6050   -0.0940 C   0  0  0  0  0  0  0  0  0  0  0  0
    1.1780   -0.6870    0.3990 N   0  0  0  0  0  0  0  0  0  0  0  0
   -0.1950   -0.8510   -0.0840 C   0  0  2  0  0  0  0  0  0  0  0  0
   -1.1610   -0.4950    1.0170 C   0  0  0  0  0  0  0  0  0  0  0  0
   -0.7650   -0.3800    2.1580 O   0  0  0  0  0  0  0  0  0  0  0  0
   -0.4170   -2.3050   -0.5050 C   0  0  0  0  0  0  0  0  0  0  0  0
   -1.7980   -2.4440   -1.1490 C   0  0  0  0  0  0  0  0  0  0  0  0
   -1.8280   -1.6640   -2.4650 C   0  0  0  0  0  0  0  0  0  0  0  0
   -2.0850   -3.9220   -1.4260 C   0  0  0  0  0  0  0  0  0  0  0  0
   -2.4640   -0.3020    0.7340 N   0  0  0  0  0  0  0  0  0  0  0  0
   -3.3830    0.1490    1.7820 C   0  0  2  0  0  0  0  0  0  0  0  0
   -3.8850   -1.0600    2.5750 C   0  0  0  0  0  0  0  0  0  0  0  0
   -4.6670   -1.8980    1.7220 O   0  0  0  0  0  0  0  0  0  0  0  0
   -4.5720    0.8690    1.1430 C   0  0  0  0  0  0  0  0  0  0  0  0
   -4.0850    2.1460    0.4550 C   0  0  2  0  0  0  0  0  0  0  0  0
   -5.2740    2.9090   -0.1740 C   0  0  0  0  0  0  0  0  0  0  0  0
   -5.2640    2.3710   -1.6220 C   0  0  0  0  0  0  0  0  0  0  0  0
   -3.8810    1.9470   -1.8720 N   0  0  0  0  0  0  0  0  0  0  0  0
   -3.1980    1.8070   -0.7230 C   0  0  0  0  0  0  0  0  0  0  0  0
   -2.0390    1.4600   -0.6420 O   0  0  0  0  0  0  0  0  0  0  0  0
    4.5250   -0.6350   -1.6970 H   0  0  0  0  0  0  0  0  0  0  0  0
    4.1200    1.0920   -1.5440 H   0  0  0  0  0  0  0  0  0  0  0  0
    5.3780    2.5340   -0.0460 H   0  0  0  0  0  0  0  0  0  0  0  0
    7.5290    2.9380    1.0820 H   0  0  0  0  0  0  0  0  0  0  0  0
    9.0930    1.0730    1.4540 H   0  0  0  0  0  0  0  0  0  0  0  0
    8.5060   -1.1960    0.6980 H   0  0  0  0  0  0  0  0  0  0  0  0
    6.3510   -1.6010   -0.4220 H   0  0  0  0  0  0  0  0  0  0  0  0
    1.3770   -0.8000    1.3420 H   0  0  0  0  0  0  0  0  0  0  0  0
   -0.3610   -0.1960   -0.9390 H   0  0  0  0  0  0  0  0  0  0  0  0
    0.3490   -2.5970   -1.2230 H   0  0  0  0  0  0  0  0  0  0  0  0
   -0.3590   -2.9510    0.3710 H   0  0  0  0  0  0  0  0  0  0  0  0
   -2.5560   -2.0470   -0.4740 H   0  0  0  0  0  0  0  0  0  0  0  0
   -1.1250   -2.1090   -3.1680 H   0  0  0  0  0  0  0  0  0  0  0  0
   -2.8330   -1.6990   -2.8850 H   0  0  0  0  0  0  0  0  0  0  0  0
   -1.5480   -0.6270   -2.2780 H   0  0  0  0  0  0  0  0  0  0  0  0
   -2.0640   -4.4780   -0.4890 H   0  0  0  0  0  0  0  0  0  0  0  0
   -3.0690   -4.0210   -1.8850 H   0  0  0  0  0  0  0  0  0  0  0  0
   -1.3280   -4.3190   -2.1020 H   0  0  0  0  0  0  0  0  0  0  0  0
   -2.7940   -0.4620   -0.1640 H   0  0  0  0  0  0  0  0  0  0  0  0
   -2.8620    0.8320    2.4520 H   0  0  0  0  0  0  0  0  0  0  0  0
   -5.0400    0.2150    0.4070 H   0  0  0  0  0  0  0  0  0  0  0  0
   -5.2980    1.1260    1.9140 H   0  0  0  0  0  0  0  0  0  0  0  0
   -3.5530    2.7810    1.1630 H   0  0  0  0  0  0  0  0  0  0  0  0
   -6.2080    2.6580    0.3290 H   0  0  0  0  0  0  0  0  0  0  0  0
   -5.1010    3.9850   -0.1560 H   0  0  0  0  0  0  0  0  0  0  0  0
   -5.9410    1.5220   -1.7140 H   0  0  0  0  0  0  0  0  0  0  0  0
   -5.5490    3.1590   -2.3190 H   0  0  0  0  0  0  0  0  0  0  0  0
   -3.5090    1.7880   -2.7530 H   0  0  0  0  0  0  0  0  0  0  0  0
   -3.0330   -1.6230    2.9560 H   0  0  0  0  0  0  0  0  0  0  0  0
   -4.4970   -0.7180    3.4090 H   0  0  0  0  0  0  0  0  0  0  0  0
   -5.0190   -2.6850    2.1590 H   0  0  0  0  0  0  0  0  0  0  0  0
 16 18  1  0  0  0  0
  6  7  2  0  0  0  0
  7  8  1  0  0  0  0
  5  6  1  0  0  0  0
 15 16  1  0  0  0  0
 16 17  1  0  0  0  0
 12 15  1  0  0  0  0
  8  9  2  0  0  0  0
  1  2  1  0  0  0  0
  2  3  1  0  0  0  0
 11 12  1  0  0  0  0
  3 11  1  0  0  0  0
  1  5  1  0  0  0  0
  5 10  2  0  0  0  0
 13 14  2  0  0  0  0
  9 10  1  0  0  0  0
 12 13  1  0  0  0  0
  3  4  2  0  0  0  0
 13 19  1  0  0  0  0
 25 26  1  0  0  0  0
 24 25  1  0  0  0  0
 19 20  1  0  0  0  0
 20 21  1  0  0  0  0
 20 23  1  0  0  0  0
 26 27  1  0  0  0  0
 21 22  1  0  0  0  0
 23 24  1  0  0  0  0
 24 28  1  0  0  0  0
 27 28  1  0  0  0  0
 28 29  2  0  0  0  0
  1 30  1  0  0  0  0
  1 31  1  0  0  0  0
  6 32  1  0  0  0  0
  7 33  1  0  0  0  0
  8 34  1  0  0  0  0
  9 35  1  0  0  0  0
 10 36  1  0  0  0  0
 11 37  1  0  0  0  0
 12 38  1  0  0  0  0
 15 39  1  0  0  0  0
 15 40  1  0  0  0  0
 16 41  1  0  0  0  0
 17 42  1  0  0  0  0
 17 43  1  0  0  0  0
 17 44  1  0  0  0  0
 18 45  1  0  0  0  0
 18 46  1  0  0  0  0
 18 47  1  0  0  0  0
 19 48  1  0  0  0  0
 20 49  1  0  0  0  0
 23 50  1  0  0  0  0
 23 51  1  0  0  0  0
 24 52  1  0  0  0  0
 25 53  1  0  0  0  0
 25 54  1  0  0  0  0
 26 55  1  0  0  0  0
 26 56  1  0  0  0  0
 27 57  1  0  0  0  0
 21 58  1  0  0  0  0
 21 59  1  0  0  0  0
 22 60  1  0  0  0  0
M  END
> <OPENEYE_ISO_SMILES>
CC(C)C[C@@H](C(=O)N[C@@H](C[C@@H]1CCNC1=O)CO)NC(=O)OCc2ccccc2

> <OPENEYE_INCHI>
InChI=1S/C21H31N3O5/c1-14(2)10-18(24-21(28)29-13-15-6-4-3-5-7-15)20(27)23-17(12-25)11-16-8-9-22-19(16)26/h3-7,14,16-18,25H,8-13H2,1-2H3,(H,22,26)(H,23,27)(H,24,28)/t16-,17-,18-/m0/s1

> <OPENEYE_INCHIKEY>
JUCVXDDMQHPCKT-BZSNNMDCSA-N

> <FORMULA>
C21H31N3O5

$$$$
