@<TRIPOS>MOLECULE
/home/pku/3cl/gett_pdb/7QIF/7QIF_mol2/ligand/7QIF_GTG.pdb
 52 57 0 0 0
SMALL
GASTEIGER

@<TRIPOS>ATOM
      1  PA       -18.4480  -22.3950   21.1190 P.3   601  GTG601      0.2189
      2  O1A      -18.4970  -20.9150   20.9240 O.3   601  GTG601     -0.4371
      3  O2A      -18.1900  -23.2300   19.9080 O.co2 601  GTG601     -0.5170
      4  O3A      -19.8250  -22.8840   21.7830 O.3   601  GTG601     -0.2701
      5  PB       -20.6450  -22.5360   23.1140 P.3   601  GTG601      0.2237
      6  O1B      -20.3250  -21.1360   23.5260 O.2   601  GTG601     -0.5168
      7  O2B      -20.4970  -23.6530   24.0940 O.co2 601  GTG601     -0.4369
      8  O3B      -22.1350  -22.5330   22.5230 O.3   601  GTG601     -0.2701
      9  N9A      -14.4410  -18.9160   22.6060 N.pl3 601  GTG601     -0.2503
     10  C8A      -15.5010  -18.3570   22.0680 C.3   601  GTG601      0.1917
     11  N7A      -15.1450  -17.4510   21.1590 N.pl3 601  GTG601     -0.2828
     12  C7X      -16.0690  -16.6140   20.3970 C.3   601  GTG601      0.1140
     13  C5A      -13.7500  -17.4560   21.0670 C.ar  601  GTG601      0.1399
     14  C6A      -12.8590  -16.7390   20.2750 C.ar  601  GTG601      0.2978
     15  O6A      -13.1050  -15.8900   19.4260 O.2   601  GTG601     -0.2636
     16  N1A      -11.5590  -17.1030   20.5530 N.ar  601  GTG601     -0.1712
     17  C2A      -11.1690  -18.0370   21.4760 C.ar  601  GTG601      0.2604
     18  N2A       -9.8550  -18.2510   21.6010 N.pl3 601  GTG601     -0.0859
     19  N3A      -12.0260  -18.7110   22.2240 N.ar  601  GTG601     -0.1946
     20  C4A      -13.3070  -18.3810   21.9780 C.ar  601  GTG601      0.1558
     21  O5D      -17.3450  -22.7430   22.2310 O.3   601  GTG601     -0.3112
     22  C5D      -15.9770  -22.7070   21.7460 C.3   601  GTG601      0.1813
     23  C4D      -15.0110  -22.4390   22.8740 C.3   601  GTG601      0.1799
     24  O4D      -14.1680  -21.3200   22.4830 O.3   601  GTG601     -0.3326
     25  C3D      -15.6220  -22.0100   24.2160 C.3   601  GTG601      0.2158
     26  O3D      -14.7070  -22.3000   25.2630 O.3   601  GTG601     -0.2175
     27  C2D      -15.7780  -20.5230   23.9810 C.3   601  GTG601      0.2310
     28  O2D      -15.9050  -19.7530   25.1610 O.3   601  GTG601     -0.2158
     29  C1D      -14.4510  -20.2140   23.3110 C.3   601  GTG601      0.2283
     30  PG       -23.5700  -22.2450   23.1810 P.3   601  GTG601      0.2189
     31  O1G      -23.3840  -21.2920   24.3150 O.3   601  GTG601     -0.4371
     32  O2G      -24.2560  -23.5440   23.4510 O.co2 601  GTG601     -0.5170
     33  O5E      -24.3240  -21.4790   21.9870 O.3   601  GTG601     -0.3112
     34  C5E      -25.1060  -22.1750   20.9780 C.3   601  GTG601      0.1813
     35  C4E      -24.2060  -22.8870   19.9980 C.3   601  GTG601      0.1801
     36  O4E      -23.6910  -24.0870   20.6260 O.3   601  GTG601     -0.3306
     37  C3E      -24.9130  -23.4350   18.7550 C.3   601  GTG601      0.2161
     38  O3E      -23.9640  -23.8540   17.7840 O.3   601  GTG601     -0.2175
     39  C2E      -25.6150  -24.6420   19.3800 C.3   601  GTG601      0.2337
     40  O2E      -26.1080  -25.5850   18.4520 O.3   601  GTG601     -0.2155
     41  C1E      -24.5050  -25.1870   20.2770 C.3   601  GTG601      0.2409
     42  N9B      -24.9780  -25.8060   21.5120 N.ar  601  GTG601     -0.2693
     43  C8B      -26.0580  -25.4330   22.2710 C.ar  601  GTG601      0.1817
     44  N7B      -26.2130  -26.1960   23.3300 N.ar  601  GTG601     -0.2173
     45  C5B      -25.1750  -27.1190   23.2520 C.ar  601  GTG601      0.1748
     46  C6B      -24.8340  -28.1890   24.1160 C.ar  601  GTG601      0.3023
     47  O6B      -25.4030  -28.5460   25.1580 O.2   601  GTG601     -0.2633
     48  N1B      -23.7060  -28.8720   23.6570 N.ar  601  GTG601     -0.1709
     49  C2B      -22.9980  -28.5650   22.5190 C.ar  601  GTG601      0.2606
     50  N2B      -21.9390  -29.3390   22.2450 N.pl3 601  GTG601     -0.0859
     51  N3B      -23.3140  -27.5590   21.7030 N.ar  601  GTG601     -0.1918
     52  C4B      -24.4080  -26.8850   22.1340 C.ar  601  GTG601      0.1723
@<TRIPOS>UNITY_ATOM_ATTR
3 1
charge -1
7 1
charge -1
32 1
charge -1
@<TRIPOS>BOND
     1    38    37    1
     2    40    39    1
     3    37    39    1
     4    37    35    1
     5    39    41    1
     6    15    14    2
     7     3     1    2
     8    35    36    1
     9    35    34    1
    10    14    16   ar
    11    14    13   ar
    12    41    36    1
    13    41    42    1
    14    12    11    1
    15    16    17   ar
    16     2     1    1
    17    34    33    1
    18    13    11    1
    19    13    20   ar
    20     1     4    1
    21     1    21    1
    22    11    10    1
    23    17    18    1
    24    17    19   ar
    25    42    52   ar
    26    42    43   ar
    27    51    52   ar
    28    51    49   ar
    29    22    21    1
    30    22    23    1
    31     4     5    1
    32    20    19   ar
    33    20     9    1
    34    33    30    1
    35    10     9    1
    36    52    45   ar
    37    50    49    1
    38    43    44   ar
    39    24    23    1
    40    24    29    1
    41    49    48   ar
    42     8     5    1
    43     8    30    1
    44     9    29    1
    45    23    25    1
    46     5     6    2
    47     5     7    1
    48    30    32    2
    49    30    31    1
    50    45    44   ar
    51    45    46   ar
    52    29    27    1
    53    48    46   ar
    54    27    25    1
    55    27    28    1
    56    46    47    2
    57    25    26    1
