8H9
  -OEChem-02242320013D

103105  0     1  0  0  0  0  0999 V2000
    4.5630   -0.3660   -1.7780 C   0  0  0  0  0  0  0  0  0  0  0  0
    7.2410    6.2740    3.1420 C   0  0  0  0  0  0  0  0  0  0  0  0
   -3.6980   -0.0540    0.4230 C   0  0  2  0  0  0  0  0  0  0  0  0
   -2.5720   -0.3900   -0.5200 C   0  0  0  0  0  0  0  0  0  0  0  0
   -1.0060    1.2950    0.5610 C   0  0  0  0  0  0  0  0  0  0  0  0
   -0.2280    0.1630   -1.3340 C   0  0  2  0  0  0  0  0  0  0  0  0
    0.8340   -0.6970   -0.6990 C   0  0  0  0  0  0  0  0  0  0  0  0
   -0.2330    2.3580   -0.2500 C   0  0  2  0  0  0  0  0  0  0  0  0
    2.9170   -1.9560   -0.8220 C   0  0  1  0  0  0  0  0  0  0  0  0
   -0.7570    2.7270   -1.6390 C   0  0  0  0  0  0  0  0  0  0  0  0
    2.5320   -3.4320   -0.7120 C   0  0  0  0  0  0  0  0  0  0  0  0
    6.0830    3.7360    0.4880 C   0  0  0  0  0  0  0  0  0  0  0  0
    3.6030   -4.1810    0.0840 C   0  0  2  0  0  0  0  0  0  0  0  0
    3.2490   -5.6820    0.1880 C   0  0  0  0  0  0  0  0  0  0  0  0
    2.5020   -5.7370    1.5390 C   0  0  0  0  0  0  0  0  0  0  0  0
   -2.1910    2.3190   -1.9830 C   0  0  0  0  0  0  0  0  0  0  0  0
    3.6260   -3.7040    1.5200 C   0  0  0  0  0  0  0  0  0  0  0  0
   -0.2870    4.0540   -2.2400 C   0  0  0  0  0  0  0  0  0  0  0  0
   -3.7170   -2.4310    1.1920 C   0  0  0  0  0  0  0  0  0  0  0  0
   -8.1690    2.5050   -0.1530 C   0  0  0  0  0  0  0  0  0  0  0  0
   -8.7350    0.6500    1.4230 C   0  0  0  0  0  0  0  0  0  0  0  0
   -9.6290    0.6240   -0.9100 C   0  0  0  0  0  0  0  0  0  0  0  0
    5.3110    1.7290   -0.7840 C   0  0  0  0  0  0  0  0  0  0  0  0
   -3.6320   -0.9720    1.6450 C   0  0  0  0  0  0  0  0  0  0  0  0
   -2.3110   -0.7430    2.3830 C   0  0  0  0  0  0  0  0  0  0  0  0
   -4.8000   -0.6590    2.5820 C   0  0  0  0  0  0  0  0  0  0  0  0
    0.2800    1.6110   -1.4990 C   0  0  2  0  0  0  0  0  0  0  0  0
    5.6980    2.2590    0.5980 C   0  0  0  0  0  0  0  0  0  0  0  0
    6.4700    4.2670    1.8700 C   0  0  0  0  0  0  0  0  0  0  0  0
    6.8550    5.7430    1.7600 C   0  0  0  0  0  0  0  0  0  0  0  0
   -8.4320    1.0020   -0.0350 C   0  0  0  0  0  0  0  0  0  0  0  0
    4.1840   -1.8210   -1.6700 C   0  0  1  0  0  0  0  0  0  0  0  0
   -6.0690    0.4370    0.1490 C   0  0  0  0  0  0  0  0  0  0  0  0
   -4.9800   -0.2430   -0.2610 N   0  0  0  0  0  0  0  0  0  0  0  0
   -1.4040    0.2780   -0.4400 N   0  0  0  0  0  0  0  0  0  0  0  0
    1.8250   -1.2120   -1.4540 N   0  0  0  0  0  0  0  0  0  0  0  0
    4.9420    0.3150   -0.6790 N   0  0  0  0  0  0  0  0  0  0  0  0
    3.0080   -4.5970    2.3120 N   0  0  0  0  0  0  0  0  0  0  0  0
   -7.2490    0.2630   -0.4800 N   0  0  0  0  0  0  0  0  0  0  0  0
    4.1280   -2.6680    1.9000 O   0  0  0  0  0  0  0  0  0  0  0  0
   -5.9880    1.2080    1.0850 O   0  0  0  0  0  0  0  0  0  0  0  0
   -2.7160   -1.2620   -1.3510 O   0  0  0  0  0  0  0  0  0  0  0  0
    0.7980   -0.9270    0.4910 O   0  0  0  0  0  0  0  0  0  0  0  0
    4.5330    0.1900   -2.8550 O   0  0  0  0  0  0  0  0  0  0  0  0
    3.9410   -2.3480   -2.9750 O   0  0  0  0  0  0  0  0  0  0  0  0
    6.3960    6.1690    3.8210 H   0  0  0  0  0  0  0  0  0  0  0  0
    8.0880    5.7050    3.5260 H   0  0  0  0  0  0  0  0  0  0  0  0
    7.5160    7.3260    3.0630 H   0  0  0  0  0  0  0  0  0  0  0  0
   -3.6070    0.9840    0.7430 H   0  0  0  0  0  0  0  0  0  0  0  0
   -0.3590    0.8500    1.3180 H   0  0  0  0  0  0  0  0  0  0  0  0
   -1.8870    1.7380    1.0250 H   0  0  0  0  0  0  0  0  0  0  0  0
   -0.5230   -0.2490   -2.2990 H   0  0  0  0  0  0  0  0  0  0  0  0
    0.3980    3.0540    0.3030 H   0  0  0  0  0  0  0  0  0  0  0  0
    3.1020   -1.5530    0.1740 H   0  0  0  0  0  0  0  0  0  0  0  0
    1.5730   -3.5200   -0.2020 H   0  0  0  0  0  0  0  0  0  0  0  0
    2.4540   -3.8630   -1.7100 H   0  0  0  0  0  0  0  0  0  0  0  0
    6.9290    3.8410   -0.1910 H   0  0  0  0  0  0  0  0  0  0  0  0
    5.2360    4.3050    0.1040 H   0  0  0  0  0  0  0  0  0  0  0  0
    4.5820   -4.0490   -0.3770 H   0  0  0  0  0  0  0  0  0  0  0  0
    2.5980   -5.9870   -0.6310 H   0  0  0  0  0  0  0  0  0  0  0  0
    4.1510   -6.2950    0.2160 H   0  0  0  0  0  0  0  0  0  0  0  0
    1.4280   -5.6390    1.3800 H   0  0  0  0  0  0  0  0  0  0  0  0
    2.7240   -6.6710    2.0550 H   0  0  0  0  0  0  0  0  0  0  0  0
   -2.8140    3.2100   -2.0620 H   0  0  0  0  0  0  0  0  0  0  0  0
   -2.1980    1.7850   -2.9330 H   0  0  0  0  0  0  0  0  0  0  0  0
   -2.5820    1.6700   -1.1990 H   0  0  0  0  0  0  0  0  0  0  0  0
    0.4980    4.4780   -1.6150 H   0  0  0  0  0  0  0  0  0  0  0  0
    0.1000    3.8810   -3.2430 H   0  0  0  0  0  0  0  0  0  0  0  0
   -1.1270    4.7480   -2.2890 H   0  0  0  0  0  0  0  0  0  0  0  0
   -2.8850   -2.6530    0.5250 H   0  0  0  0  0  0  0  0  0  0  0  0
   -3.6690   -3.0850    2.0630 H   0  0  0  0  0  0  0  0  0  0  0  0
   -4.6580   -2.5930    0.6670 H   0  0  0  0  0  0  0  0  0  0  0  0
   -9.0500    3.0550    0.1780 H   0  0  0  0  0  0  0  0  0  0  0  0
   -7.3170    2.7740    0.4700 H   0  0  0  0  0  0  0  0  0  0  0  0
   -7.9530    2.7550   -1.1920 H   0  0  0  0  0  0  0  0  0  0  0  0
   -9.6160    1.2010    1.7540 H   0  0  0  0  0  0  0  0  0  0  0  0
   -8.9230   -0.4200    1.5070 H   0  0  0  0  0  0  0  0  0  0  0  0
   -7.8830    0.9200    2.0460 H   0  0  0  0  0  0  0  0  0  0  0  0
   -9.4130    0.8740   -1.9490 H   0  0  0  0  0  0  0  0  0  0  0  0
   -9.8160   -0.4470   -0.8260 H   0  0  0  0  0  0  0  0  0  0  0  0
  -10.5100    1.1740   -0.5790 H   0  0  0  0  0  0  0  0  0  0  0  0
    4.4640    2.2980   -1.1680 H   0  0  0  0  0  0  0  0  0  0  0  0
    6.1570    1.8340   -1.4630 H   0  0  0  0  0  0  0  0  0  0  0  0
   -1.4790   -0.9270    1.7030 H   0  0  0  0  0  0  0  0  0  0  0  0
   -2.2680    0.2860    2.7400 H   0  0  0  0  0  0  0  0  0  0  0  0
   -2.2450   -1.4260    3.2300 H   0  0  0  0  0  0  0  0  0  0  0  0
   -4.7520   -1.3130    3.4530 H   0  0  0  0  0  0  0  0  0  0  0  0
   -4.7390    0.3800    2.9050 H   0  0  0  0  0  0  0  0  0  0  0  0
   -5.7410   -0.8220    2.0570 H   0  0  0  0  0  0  0  0  0  0  0  0
    1.2880    1.7630   -1.8850 H   0  0  0  0  0  0  0  0  0  0  0  0
    6.5440    1.6910    0.9820 H   0  0  0  0  0  0  0  0  0  0  0  0
    4.8520    2.1540    1.2770 H   0  0  0  0  0  0  0  0  0  0  0  0
    5.6240    4.1610    2.5490 H   0  0  0  0  0  0  0  0  0  0  0  0
    7.3170    3.6980    2.2540 H   0  0  0  0  0  0  0  0  0  0  0  0
    6.0080    6.3120    1.3760 H   0  0  0  0  0  0  0  0  0  0  0  0
    7.7010    5.8480    1.0810 H   0  0  0  0  0  0  0  0  0  0  0  0
    4.9970   -2.3740   -1.1990 H   0  0  0  0  0  0  0  0  0  0  0  0
   -5.0450   -0.8590   -1.0080 H   0  0  0  0  0  0  0  0  0  0  0  0
    1.8150   -1.0890   -2.4160 H   0  0  0  0  0  0  0  0  0  0  0  0
    4.9700   -0.1310    0.1830 H   0  0  0  0  0  0  0  0  0  0  0  0
    2.9080   -4.5000    3.2720 H   0  0  0  0  0  0  0  0  0  0  0  0
   -7.3140   -0.3530   -1.2270 H   0  0  0  0  0  0  0  0  0  0  0  0
    3.2290   -1.9030   -3.4540 H   0  0  0  0  0  0  0  0  0  0  0  0
 12 29  1  0  0  0  0
 12 28  1  0  0  0  0
 29 30  1  0  0  0  0
 19 24  1  0  0  0  0
  2 30  1  0  0  0  0
 23 28  1  0  0  0  0
 24 25  1  0  0  0  0
  3 24  1  0  0  0  0
 24 26  1  0  0  0  0
  5  8  1  0  0  0  0
  5 35  1  0  0  0  0
 33 41  2  0  0  0  0
  8 27  1  0  0  0  0
  8 10  1  0  0  0  0
 23 37  1  0  0  0  0
  3 34  1  0  0  0  0
  3  4  1  0  0  0  0
  7 43  2  0  0  0  0
 20 31  1  0  0  0  0
  4 35  1  0  0  0  0
  6 35  1  0  0  0  0
 33 34  1  0  0  0  0
 33 39  1  0  0  0  0
  1 37  1  0  0  0  0
 10 18  1  0  0  0  0
 10 27  1  0  0  0  0
  6 27  1  0  0  0  0
  4 42  2  0  0  0  0
 10 16  1  0  0  0  0
  6  7  1  0  0  0  0
  7 36  1  0  0  0  0
 14 15  1  0  0  0  0
 13 14  1  0  0  0  0
 22 31  1  0  0  0  0
 15 38  1  0  0  0  0
 32 45  1  0  0  0  0
 31 39  1  0  0  0  0
 21 31  1  0  0  0  0
  1 32  1  0  0  0  0
  1 44  2  0  0  0  0
  9 32  1  0  0  0  0
  9 36  1  0  0  0  0
  9 11  1  0  0  0  0
 11 13  1  0  0  0  0
 13 17  1  0  0  0  0
 17 38  1  0  0  0  0
 17 40  2  0  0  0  0
  2 46  1  0  0  0  0
  2 47  1  0  0  0  0
  2 48  1  0  0  0  0
  3 49  1  0  0  0  0
  5 50  1  0  0  0  0
  5 51  1  0  0  0  0
  6 52  1  0  0  0  0
  8 53  1  0  0  0  0
  9 54  1  0  0  0  0
 11 55  1  0  0  0  0
 11 56  1  0  0  0  0
 12 57  1  0  0  0  0
 12 58  1  0  0  0  0
 13 59  1  0  0  0  0
 14 60  1  0  0  0  0
 14 61  1  0  0  0  0
 15 62  1  0  0  0  0
 15 63  1  0  0  0  0
 16 64  1  0  0  0  0
 16 65  1  0  0  0  0
 16 66  1  0  0  0  0
 18 67  1  0  0  0  0
 18 68  1  0  0  0  0
 18 69  1  0  0  0  0
 19 70  1  0  0  0  0
 19 71  1  0  0  0  0
 19 72  1  0  0  0  0
 20 73  1  0  0  0  0
 20 74  1  0  0  0  0
 20 75  1  0  0  0  0
 21 76  1  0  0  0  0
 21 77  1  0  0  0  0
 21 78  1  0  0  0  0
 22 79  1  0  0  0  0
 22 80  1  0  0  0  0
 22 81  1  0  0  0  0
 23 82  1  0  0  0  0
 23 83  1  0  0  0  0
 25 84  1  0  0  0  0
 25 85  1  0  0  0  0
 25 86  1  0  0  0  0
 26 87  1  0  0  0  0
 26 88  1  0  0  0  0
 26 89  1  0  0  0  0
 27 90  1  0  0  0  0
 28 91  1  0  0  0  0
 28 92  1  0  0  0  0
 29 93  1  0  0  0  0
 29 94  1  0  0  0  0
 30 95  1  0  0  0  0
 30 96  1  0  0  0  0
 32 97  1  0  0  0  0
 34 98  1  0  0  0  0
 36 99  1  0  0  0  0
 37100  1  0  0  0  0
 38101  1  0  0  0  0
 39102  1  0  0  0  0
 45103  1  0  0  0  0
M  END
> <OPENEYE_ISO_SMILES>
CCCCCCNC(=O)[C@@H]([C@H](C[C@@H]1CCNC1=O)NC(=O)[C@@H]2[C@@H]3[C@@H](C3(C)C)CN2C(=O)[C@H](C(C)(C)C)NC(=O)NC(C)(C)C)O

> <OPENEYE_INCHI>
InChI=1S/C33H58N6O6/c1-10-11-12-13-15-34-28(43)24(40)21(17-19-14-16-35-26(19)41)36-27(42)23-22-20(33(22,8)9)18-39(23)29(44)25(31(2,3)4)37-30(45)38-32(5,6)7/h19-25,40H,10-18H2,1-9H3,(H,34,43)(H,35,41)(H,36,42)(H2,37,38,45)/t19-,20-,21-,22-,23-,24+,25+/m0/s1

> <OPENEYE_INCHIKEY>
NSGOBCXXBBPKSX-FQCPSNFCSA-N

> <FORMULA>
C33H58N6O6

$$$$
