@<TRIPOS>MOLECULE
/home/pku/3cl/gett_pdb/5SP6/5SP6_mol2/ligand/5SP6_RXX.pdb
 36 39 0 0 0
SMALL
GASTEIGER

@<TRIPOS>ATOM
      1  C18      -44.7940  -29.5610    5.8120 C.cat 201  RXX201      0.4052
      2  C15      -47.0570  -29.2990    5.6870 C.3   201  RXX201      0.2799
      3  C14      -46.9580  -29.1350    4.2920 C.ar  201  RXX201      0.1635
      4  C12      -47.1330  -28.8390    2.1550 C.ar  201  RXX201      0.0993
      5  C10      -44.7630  -29.0200    1.4300 C.3   201  RXX201      0.0698
      6  C01      -44.0910  -35.4960   -4.2380 C.3   201  RXX201     -0.0063
      7  C02      -44.6850  -34.8650   -2.9870 C.ar  201  RXX201      0.1028
      8  C03      -45.3190  -35.5020   -1.9310 C.ar  201  RXX201     -0.0203
      9  C04      -45.6790  -34.5140   -1.0220 C.ar  201  RXX201     -0.0135
     10  C05      -45.2480  -33.2980   -1.5530 C.ar  201  RXX201      0.1600
     11  C07      -45.3150  -31.8600   -1.0730 C.ar  201  RXX201      0.1436
     12  C09      -45.0900  -29.9420    0.2360 C.ar  201  RXX201      0.0690
     13  C21      -45.7110  -29.2050    3.7420 C.ar  201  RXX201      0.2307
     14  C22      -45.5910  -29.4700   -1.0090 C.ar  201  RXX201      0.0008
     15  N08      -44.9030  -31.3940    0.1680 N.ar  201  RXX201     -0.2390
     16  N11      -45.8370  -29.0280    2.4180 N.ar  201  RXX201     -0.2974
     17  N13      -47.8340  -28.9020    3.2920 N.ar  201  RXX201     -0.2316
     18  N16      -48.3360  -29.2570    6.3320 N.3   201  RXX201     -0.2837
     19  N17      -45.9740  -29.5190    6.4010 N.2   201  RXX201     -0.0788
     20  N19      -43.6520  -29.8230    6.6290 N.pl3 201  RXX201     -0.2488
     21  N20      -44.6280  -29.4260    4.5210 N.pl3 201  RXX201     -0.0208
     22  O06      -44.6680  -33.5560   -2.7250 O.2   201  RXX201     -0.4579
     23  S23      -45.8180  -30.6600   -2.0630 S.2   201  RXX201     -0.0723
     24 H121      -47.5430  -28.6600    1.1820 H     201  RXX201      0.1030
     25 H101      -44.6180  -27.9980    1.0750 H     201  RXX201      0.0558
     26 H102      -43.8350  -29.3360    1.9080 H     201  RXX201      0.0558
     27 H012      -44.8490  -35.5270   -5.0030 H     201  RXX201      0.0308
     28 H011      -43.7450  -36.5040   -4.0180 H     201  RXX201      0.0308
     29 H013      -43.2420  -34.9010   -4.5680 H     201  RXX201      0.0308
     30 H031      -45.5150  -36.5690   -1.8450 H     201  RXX201      0.0652
     31 H041      -46.1810  -34.6830   -0.0760 H     201  RXX201      0.0656
     32 H221      -45.7920  -28.4340   -1.2290 H     201  RXX201      0.0713
     33 H161      -48.8700  -30.1060    6.4350 H     201  RXX201      0.1223
     34 H162      -48.6750  -28.3960    6.6750 H     201  RXX201      0.1223
     35 H192      -43.5070  -30.7410    7.0070 H     201  RXX201      0.2413
     36 H191      -42.9880  -29.0980    6.7990 H     201  RXX201      0.2413
@<TRIPOS>BOND
     1    27     6    1
     2    29     6    1
     3     6    28    1
     4     6     7    1
     5     7    22   ar
     6     7     8   ar
     7    22    10   ar
     8    23    11   ar
     9    23    14   ar
    10     8    30    1
    11     8     9   ar
    12    10    11    1
    13    10     9   ar
    14    32    14    1
    15    11    15   ar
    16     9    31    1
    17    14    12   ar
    18    15    12   ar
    19    12     5    1
    20    25     5    1
    21    24     4    1
    22     5    26    1
    23     5    16    1
    24     4    16   ar
    25     4    17   ar
    26    16    13   ar
    27    17     3   ar
    28    13     3   ar
    29    13    21    1
    30     3     2    1
    31    21     1    1
    32     2    18    1
    33     2    19    1
    34     1    19    2
    35     1    20    1
    36    18    33    1
    37    18    34    1
    38    20    36    1
    39    20    35    1
