@<TRIPOS>MOLECULE
/home/pku/3cl/gett_pdb/5SPN/5SPN_mol2/ligand/5SPN_S50.pdb
 43 46 0 0 0
SMALL
GASTEIGER

@<TRIPOS>ATOM
      1  C16      -44.6160  -32.6570    0.8100 C.ar  201  S50201      0.0669
      2  C17      -43.9060  -32.4990   -0.3750 C.ar  201  S50201      0.0523
      3  C11      -48.7090  -31.0570    5.8230 C.3   201  S50201     -0.0304
      4  C10      -48.6980  -30.5520    7.0890 C.3   201  S50201     -0.0511
      5  C19      -45.0450  -34.2780   -1.3240 C.ar  201  S50201      0.1382
      6  C01      -49.4050  -29.6710    0.5270 C.3   201  S50201     -0.0206
      7  C02      -48.4820  -30.0790    1.6780 C.ar  201  S50201      0.0619
      8  C03      -47.2830  -30.7650    1.5920 C.ar  201  S50201      0.0061
      9  C04      -46.7930  -30.9030    2.8710 C.ar  201  S50201      0.1959
     10  C07      -47.5250  -30.2490    5.1240 C.3   201  S50201      0.0548
     11  C08      -47.6760  -28.7870    5.7340 C.3   201  S50201     -0.0304
     12  C09      -48.3530  -28.9370    6.9110 C.3   201  S50201     -0.0511
     13  C21      -46.3560  -35.9880   -1.7960 C.ar  201  S50201      0.0041
     14  C22      -46.6350  -35.5930   -0.4970 C.ar  201  S50201     -0.0350
     15  C23      -45.7940  -34.4960   -0.1940 C.ar  201  S50201      0.0204
     16  C24      -45.5880  -33.6550    0.9310 C.ar  201  S50201     -0.0272
     17  N05      -47.6550  -30.3450    3.6860 N.ar  201  S50201     -0.2426
     18  N06      -48.6950  -29.8220    2.9670 N.ar  201  S50201     -0.1745
     19  N15      -44.3260  -31.7370    1.8870 N.pl3 201  S50201     -0.2134
     20  N18      -44.1220  -33.2940   -1.4010 N.ar  201  S50201     -0.2356
     21  N20      -45.4120  -35.1920   -2.2730 N.ar  201  S50201     -0.3458
     22  O13      -45.5070  -33.0650    3.8670 O.2   201  S50201     -0.1485
     23  O14      -44.4980  -31.1010    4.3970 O.2   201  S50201     -0.1485
     24  S12      -45.2420  -31.7410    3.3090 S.O2  201  S50201      0.0894
     25 H171      -43.1700  -31.7120   -0.4450 H     201  S50201      0.0849
     26 H112      -48.4860  -32.1160    5.8440 H     201  S50201      0.0286
     27 H111      -49.6590  -30.8640    5.3330 H     201  S50201      0.0286
     28 H101      -47.9280  -31.0420    7.6880 H     201  S50201      0.0266
     29 H102      -49.6630  -30.6870    7.5670 H     201  S50201      0.0266
     30 H013      -49.6090  -30.5330   -0.0950 H     201  S50201      0.0293
     31 H012      -48.9180  -28.9060   -0.0780 H     201  S50201      0.0293
     32 H011      -50.3390  -29.2820    0.9260 H     201  S50201      0.0293
     33 H031      -46.8190  -31.1380    0.6840 H     201  S50201      0.0671
     34 H071      -46.5790  -30.6760    5.4290 H     201  S50201      0.0545
     35 H081      -48.2570  -28.1730    5.0480 H     201  S50201      0.0286
     36 H082      -46.7050  -28.3370    5.8800 H     201  S50201      0.0286
     37 H091      -49.2700  -28.3670    6.8940 H     201  S50201      0.0266
     38 H092      -47.7370  -28.6120    7.7360 H     201  S50201      0.0266
     39 H211      -46.8300  -36.8010   -2.3310 H     201  S50201      0.0807
     40 H221      -47.3650  -36.0430    0.1670 H     201  S50201      0.0639
     41 H241      -46.1550  -33.7890    1.8460 H     201  S50201      0.0644
     42 H151      -43.6020  -31.0550    1.7900 H     201  S50201      0.1738
     43 H201      -45.0180  -35.2530   -3.1920 H     201  S50201      0.1668
@<TRIPOS>BOND
     1    43    21    1
     2    39    13    1
     3    21    13   ar
     4    21     5   ar
     5    13    14   ar
     6    20     5   ar
     7    20     2   ar
     8     5    15   ar
     9    14    15   ar
    10    14    40    1
    11    25     2    1
    12     2     1   ar
    13    15    16   ar
    14    30     6    1
    15    31     6    1
    16     6    32    1
    17     6     7    1
    18    33     8    1
    19     1    16   ar
    20     1    19    1
    21    16    41    1
    22     8     7   ar
    23     8     9   ar
    24     7    18   ar
    25    42    19    1
    26    19    24    1
    27     9    24    1
    28     9    17   ar
    29    18    17   ar
    30    24    22    2
    31    24    23    2
    32    17    10    1
    33    35    11    1
    34    10    34    1
    35    10    11    1
    36    10     3    1
    37    27     3    1
    38    11    36    1
    39    11    12    1
    40     3    26    1
    41     3     4    1
    42    37    12    1
    43    12     4    1
    44    12    38    1
    45     4    29    1
    46     4    28    1
