@<TRIPOS>MOLECULE
/home/pku/3cl/gett_pdb/6XMK/6XMK_mol2/ligand/6XMK_QYS.pdb
 31 32 0 0 0
SMALL
GASTEIGER

@<TRIPOS>ATOM
      1  C02       10.6550   30.1540   23.9920 C.3   401  QYS401      0.2639
      2  C04        9.3580   29.4590   23.4480 C.3   401  QYS401      0.0667
      3  C05        9.1090   28.0750   24.0250 C.3   401  QYS401      0.0093
      4  C06       10.3250   27.1170   24.0140 C.3   401  QYS401      0.0443
      5  C07       10.0350   25.8110   24.8170 C.3   401  QYS401      0.2100
      6  C09       11.4080   24.0010   25.6460 C.2   401  QYS401      0.4215
      7  C11       12.4400   22.0850   26.7670 C.3   401  QYS401      0.1761
      8  C12       13.5900   21.8270   27.7850 C.3   401  QYS401      0.0312
      9  C13       14.9510   22.3330   27.3210 C.3   401  QYS401      0.0022
     10  C14       16.0720   22.0700   28.3710 C.3   401  QYS401      0.0001
     11  C15       15.3210   21.7140   25.9720 C.3   401  QYS401      0.0001
     12  C16       11.1260   21.5660   27.3140 C.2   401  QYS401      0.2614
     13  C18        9.3170   19.9310   27.3720 C.3   401  QYS401      0.1287
     14  C19        8.2230   19.7960   26.1920 C.3   401  QYS401      0.0335
     15  C20        7.7770   21.1460   25.6520 C.3   401  QYS401      0.0818
     16  C21        6.8320   21.0400   24.4690 C.2   401  QYS401      0.2410
     17  C23        5.8490   22.6850   25.8530 C.3   401  QYS401      0.1156
     18  C24        6.9820   21.9760   26.6690 C.3   401  QYS401      0.0326
     19  C26        9.5680   18.5470   28.0250 C.3   401  QYS401      0.2036
     20  C30       11.5820   27.7810   24.5640 C.3   401  QYS401      0.0093
     21  C31       11.8770   29.2220   24.1250 C.3   401  QYS401      0.0667
     22  F01       10.9750   31.2090   23.2070 F     401  QYS401     -0.2043
     23  F03       10.4250   30.7590   25.1940 F     401  QYS401     -0.2043
     24  N10       12.3320   23.5320   26.4920 N.am  401  QYS401     -0.1611
     25  N17       10.5360   20.4200   26.8760 N.am  401  QYS401     -0.2030
     26  N22        5.7840   21.8830   24.5880 N.am  401  QYS401     -0.2054
     27  O08       11.1690   25.3470   25.5700 O.3   401  QYS401     -0.4335
     28  O25        7.0860   20.2530   23.5350 O.2   401  QYS401     -0.2734
     29  O27        8.3480   18.0390   28.4980 O.3   401  QYS401     -0.2185
     30  O28       10.5430   22.2610   28.1530 O.2   401  QYS401     -0.2715
     31  O29       10.7530   23.2340   24.9260 O.2   401  QYS401     -0.2246
@<TRIPOS>BOND
     1    22     1    1
     2     2     1    1
     3     2     3    1
     4    28    16    2
     5     1    21    1
     6     1    23    1
     7     4     3    1
     8     4    20    1
     9     4     5    1
    10    21    20    1
    11    16    26   am
    12    16    15    1
    13    26    17    1
    14     5    27    1
    15    31     6    2
    16    27     6    1
    17     6    24   am
    18    15    14    1
    19    15    18    1
    20    17    18    1
    21    11     9    1
    22    14    13    1
    23    24     7    1
    24     7    12    1
    25     7     8    1
    26    25    12   am
    27    25    13    1
    28    12    30    2
    29     9     8    1
    30     9    10    1
    31    13    19    1
    32    19    29    1
