@<TRIPOS>MOLECULE
/home/pku/3cl/gett_pdb/7DGH/7DGH_mol2/ligand/7DGH_H6F.pdb
 39 41 0 0 0
SMALL
GASTEIGER

@<TRIPOS>ATOM
      1  O37      -21.2980   14.7400  -21.6380 O.2   401  H6F401     -0.2684
      2  C26      -20.1200   14.9120  -21.5110 C.2   401  H6F401      0.2652
      3  C27      -19.2730   14.2080  -20.4290 C.ar  401  H6F401      0.0551
      4  C36      -18.0390   13.6200  -20.7470 C.ar  401  H6F401      0.0046
      5  C35      -17.2770   13.0030  -19.7380 C.ar  401  H6F401      0.0001
      6  C28      -19.7390   14.1960  -19.1140 C.ar  401  H6F401      0.0046
      7  C29      -18.9720   13.5620  -18.0900 C.ar  401  H6F401      0.0001
      8  C30      -19.4720   13.5410  -16.7490 C.ar  401  H6F401      0.0000
      9  C31      -18.7210   12.9340  -15.7390 C.ar  401  H6F401      0.0000
     10  C32      -17.4850   12.3340  -16.0430 C.ar  401  H6F401      0.0000
     11  C33      -17.0010   12.3510  -17.3550 C.ar  401  H6F401      0.0000
     12  C34      -17.7680   12.9830  -18.3900 C.ar  401  H6F401      0.0000
     13  N25      -19.4430   15.8700  -22.3800 N.am  401  H6F401     -0.1940
     14  C21      -20.2300   16.5640  -23.3860 C.3   401  H6F401      0.1730
     15  C20      -19.4320   16.6250  -24.6780 C.2   401  H6F401      0.2616
     16  O38      -18.3170   17.0200  -24.6460 O.2   401  H6F401     -0.2715
     17  C22      -20.4140   18.0040  -22.9660 C.3   401  H6F401      0.0290
     18  C24      -20.9930   18.0990  -21.5480 C.3   401  H6F401      0.0023
     19  C23      -21.2330   18.7570  -24.0070 C.3   401  H6F401      0.0023
     20  N19      -20.0620   16.2020  -25.9320 N.am  401  H6F401     -0.1963
     21  C14      -19.3050   16.2710  -27.1720 C.3   401  H6F401      0.1728
     22  C13      -19.2730   17.7260  -27.6210 C.2   401  H6F401      0.2616
     23  O39      -20.2430   18.4000  -27.5500 O.2   401  H6F401     -0.2715
     24  C15      -20.0050   15.4310  -28.2350 C.3   401  H6F401      0.0311
     25  C16      -19.9150   13.9440  -27.8810 C.3   401  H6F401      0.0022
     26  C17      -18.4520   13.5800  -27.6280 C.3   401  H6F401      0.0001
     27  C18      -20.5140   13.0530  -28.9760 C.3   401  H6F401      0.0001
     28  C07      -19.1520   21.9390  -24.8960 C.3   401  H6F401      0.0239
     29  C03      -18.0500   19.6790  -28.5960 C.3   401  H6F401      0.1601
     30  C06      -18.8400   21.4860  -26.2550 C.3   401  H6F401      0.0110
     31  C10      -16.4240   21.4710  -25.4790 C.2   401  H6F401      0.2410
     32  C04      -17.1110   20.5480  -27.7500 C.3   401  H6F401      0.0388
     33  C02      -17.5760   19.6380  -30.0480 C.2   401  H6F401      0.2287
     34  C05      -17.6140   20.7530  -26.2560 C.3   401  H6F401      0.0804
     35  C08      -18.2290   23.0330  -24.5020 C.3   401  H6F401      0.1152
     36  N12      -18.0350   18.2950  -28.1410 N.am  401  H6F401     -0.1977
     37  N09      -16.7540   22.6540  -24.5780 N.am  401  H6F401     -0.2054
     38  O01      -17.6070   20.6370  -30.6850 O.2   401  H6F401     -0.2864
     39  O11      -15.3080   21.0880  -25.6030 O.2   401  H6F401     -0.2734
@<TRIPOS>BOND
     1    38    33    2
     2    33    29    1
     3    27    25    1
     4    29    36    1
     5    29    32    1
     6    24    25    1
     7    24    21    1
     8    36    22   am
     9    25    26    1
    10    32    34    1
    11    22    23    2
    12    22    21    1
    13    21    20    1
    14    34    30    1
    15    34    31    1
    16    30    28    1
    17    20    15   am
    18    39    31    2
    19    31    37   am
    20    28    35    1
    21    15    16    2
    22    15    14    1
    23    37    35    1
    24    19    17    1
    25    14    17    1
    26    14    13    1
    27    17    18    1
    28    13     2   am
    29     1     2    2
    30     2     3    1
    31     4     3   ar
    32     4     5   ar
    33     3     6   ar
    34     5    12   ar
    35     6     7   ar
    36    12     7   ar
    37    12    11   ar
    38     7     8   ar
    39    11    10   ar
    40     8     9   ar
    41    10     9   ar
