RV3
  -OEChem-02242320043D

 39 42  0     0  0  0  0  0  0999 V2000
   -2.3230    0.3560    0.9250 C   0  0  0  0  0  0  0  0  0  0  0  0
   -2.4210   -0.0100   -0.4240 C   0  0  0  0  0  0  0  0  0  0  0  0
   -1.1960   -0.2810   -1.2040 C   0  0  0  0  0  0  0  0  0  0  0  0
    1.2280   -0.4460   -1.3900 C   0  0  0  0  0  0  0  0  0  0  0  0
    2.4360   -0.2600   -0.5090 C   0  0  0  0  0  0  0  0  0  0  0  0
    3.1530    0.9450   -0.3180 C   0  0  0  0  0  0  0  0  0  0  0  0
    3.0070    2.2420   -0.8270 C   0  0  0  0  0  0  0  0  0  0  0  0
   -4.7020    0.5100    1.0640 C   0  0  0  0  0  0  0  0  0  0  0  0
   -3.4470    0.6090    1.6560 C   0  0  0  0  0  0  0  0  0  0  0  0
    2.5940   -2.6190    0.3480 C   0  0  0  0  0  0  0  0  0  0  0  0
    3.0290   -1.2190    0.2510 C   0  0  0  0  0  0  0  0  0  0  0  0
    4.2000    0.6630    0.5820 C   0  0  0  0  0  0  0  0  0  0  0  0
    5.0760    1.6790    0.9520 C   0  0  0  0  0  0  0  0  0  0  0  0
    4.9120    2.9460    0.4380 C   0  0  0  0  0  0  0  0  0  0  0  0
    3.8790    3.2220   -0.4480 C   0  0  0  0  0  0  0  0  0  0  0  0
   -6.8280    0.4560    0.4740 C   0  0  0  0  0  0  0  0  0  0  0  0
   -4.8180    0.1390   -0.2880 C   0  0  0  0  0  0  0  0  0  0  0  0
   -3.6680   -0.1180   -1.0320 C   0  0  0  0  0  0  0  0  0  0  0  0
    4.1060   -0.6670    0.9180 N   0  0  0  0  0  0  0  0  0  0  0  0
    0.0130   -0.1760   -0.6170 N   0  0  0  0  0  0  0  0  0  0  0  0
   -5.9900    0.6970    1.5180 N   0  0  0  0  0  0  0  0  0  0  0  0
   -6.1450    0.1280   -0.5830 N   0  0  0  0  0  0  0  0  0  0  0  0
    3.2650   -3.4800    1.1380 O   0  0  0  0  0  0  0  0  0  0  0  0
    1.6290   -3.0010   -0.2850 O   0  0  0  0  0  0  0  0  0  0  0  0
   -1.2780   -0.5980   -2.3740 O   0  0  0  0  0  0  0  0  0  0  0  0
   -1.3520    0.4340    1.3910 H   0  0  0  0  0  0  0  0  0  0  0  0
    1.2830    0.2450   -2.2320 H   0  0  0  0  0  0  0  0  0  0  0  0
    1.2030   -1.4700   -1.7620 H   0  0  0  0  0  0  0  0  0  0  0  0
    2.2070    2.4660   -1.5170 H   0  0  0  0  0  0  0  0  0  0  0  0
   -3.3630    0.8860    2.6960 H   0  0  0  0  0  0  0  0  0  0  0  0
    5.8820    1.4750    1.6420 H   0  0  0  0  0  0  0  0  0  0  0  0
    5.5920    3.7330    0.7280 H   0  0  0  0  0  0  0  0  0  0  0  0
    3.7640    4.2210   -0.8420 H   0  0  0  0  0  0  0  0  0  0  0  0
   -7.9050    0.5210    0.5180 H   0  0  0  0  0  0  0  0  0  0  0  0
   -3.7430   -0.4000   -2.0720 H   0  0  0  0  0  0  0  0  0  0  0  0
    4.6980   -1.1400    1.5230 H   0  0  0  0  0  0  0  0  0  0  0  0
    0.0790    0.0770    0.3170 H   0  0  0  0  0  0  0  0  0  0  0  0
   -6.2500    0.9520    2.4170 H   0  0  0  0  0  0  0  0  0  0  0  0
    2.9420   -4.3910    1.1700 H   0  0  0  0  0  0  0  0  0  0  0  0
 14 15  2  0  0  0  0
 13 14  1  0  0  0  0
  7 15  1  0  0  0  0
 12 13  2  0  0  0  0
  6  7  2  0  0  0  0
  6 12  1  0  0  0  0
 12 19  1  0  0  0  0
  5  6  1  0  0  0  0
 11 19  1  0  0  0  0
  4  5  1  0  0  0  0
  5 11  2  0  0  0  0
  4 20  1  0  0  0  0
 10 11  1  0  0  0  0
  3 25  2  0  0  0  0
 10 24  2  0  0  0  0
 10 23  1  0  0  0  0
  3 20  1  0  0  0  0
  2  3  1  0  0  0  0
  2 18  2  0  0  0  0
 17 18  1  0  0  0  0
  1  2  1  0  0  0  0
 17 22  1  0  0  0  0
  8 17  2  0  0  0  0
  1  9  2  0  0  0  0
 16 22  2  0  0  0  0
  8  9  1  0  0  0  0
  8 21  1  0  0  0  0
 16 21  1  0  0  0  0
  1 26  1  0  0  0  0
  4 27  1  0  0  0  0
  4 28  1  0  0  0  0
  7 29  1  0  0  0  0
  9 30  1  0  0  0  0
 13 31  1  0  0  0  0
 14 32  1  0  0  0  0
 15 33  1  0  0  0  0
 16 34  1  0  0  0  0
 18 35  1  0  0  0  0
 19 36  1  0  0  0  0
 20 37  1  0  0  0  0
 21 38  1  0  0  0  0
 23 39  1  0  0  0  0
M  END
> <OPENEYE_ISO_SMILES>
c1ccc2c(c1)c(c([nH]2)C(=O)O)CNC(=O)c3ccc4c(c3)nc[nH]4

> <OPENEYE_INCHI>
InChI=1S/C18H14N4O3/c23-17(10-5-6-14-15(7-10)21-9-20-14)19-8-12-11-3-1-2-4-13(11)22-16(12)18(24)25/h1-7,9,22H,8H2,(H,19,23)(H,20,21)(H,24,25)

> <OPENEYE_INCHIKEY>
ZBKHDPZXZUDEDP-UHFFFAOYSA-N

> <FORMULA>
C18H14N4O3

$$$$
