5Z7
  -OEChem-02242320013D

 38 40  0     0  0  0  0  0  0999 V2000
   -4.6350    0.4270   -0.2130 C   0  0  0  0  0  0  0  0  0  0  0  0
    1.5170    0.2450    0.7720 C   0  0  0  0  0  0  0  0  0  0  0  0
    2.3320    1.0100   -0.0540 C   0  0  0  0  0  0  0  0  0  0  0  0
    3.6350    0.6180   -0.2910 C   0  0  0  0  0  0  0  0  0  0  0  0
    4.1290   -0.5360    0.2940 C   0  0  0  0  0  0  0  0  0  0  0  0
    3.3200   -1.2990    1.1170 C   0  0  0  0  0  0  0  0  0  0  0  0
    2.0160   -0.9120    1.3570 C   0  0  0  0  0  0  0  0  0  0  0  0
   -5.5780   -1.4000   -1.3940 C   0  0  0  0  0  0  0  0  0  0  0  0
   -3.6170    1.5030   -0.1300 C   0  0  0  0  0  0  0  0  0  0  0  0
   -6.5430   -0.8020    0.6500 C   0  0  0  0  0  0  0  0  0  0  0  0
   -5.5510    0.2720    0.7780 C   0  0  0  0  0  0  0  0  0  0  0  0
   -1.4990    2.3830    0.7390 C   0  0  0  0  0  0  0  0  0  0  0  0
   -0.1170    1.8860    0.3030 C   0  0  0  0  0  0  0  0  0  0  0  0
   -0.7450   -0.4280    0.6720 C   0  0  0  0  0  0  0  0  0  0  0  0
   -2.1620   -0.0230    1.1220 C   0  0  0  0  0  0  0  0  0  0  0  0
   -4.6640   -0.4200   -1.3000 N   0  0  0  0  0  0  0  0  0  0  0  0
   -6.5030   -1.5990   -0.4380 N   0  0  0  0  0  0  0  0  0  0  0  0
   -2.4720    1.2960    0.5490 N   0  0  0  0  0  0  0  0  0  0  0  0
    0.2000    0.6420    1.0180 N   0  0  0  0  0  0  0  0  0  0  0  0
   -5.5700   -2.1260   -2.3690 O   0  0  0  0  0  0  0  0  0  0  0  0
   -7.3810   -0.9760    1.5150 O   0  0  0  0  0  0  0  0  0  0  0  0
   -3.8160    2.5710   -0.6750 O   0  0  0  0  0  0  0  0  0  0  0  0
    5.9140   -1.0710   -0.0320 Br  0  0  0  0  0  0  0  0  0  0  0  0
    4.6540    1.5720   -1.3230 Cl  0  0  0  0  0  0  0  0  0  0  0  0
    1.9460    1.9090   -0.5110 H   0  0  0  0  0  0  0  0  0  0  0  0
    3.7080   -2.1990    1.5710 H   0  0  0  0  0  0  0  0  0  0  0  0
    1.3850   -1.5080    1.9990 H   0  0  0  0  0  0  0  0  0  0  0  0
   -5.5490    0.9230    1.6400 H   0  0  0  0  0  0  0  0  0  0  0  0
   -1.4710    2.6700    1.7900 H   0  0  0  0  0  0  0  0  0  0  0  0
   -1.7880    3.2410    0.1330 H   0  0  0  0  0  0  0  0  0  0  0  0
   -0.1200    1.6980   -0.7710 H   0  0  0  0  0  0  0  0  0  0  0  0
    0.6320    2.6420    0.5390 H   0  0  0  0  0  0  0  0  0  0  0  0
   -0.4520   -1.3490    1.1740 H   0  0  0  0  0  0  0  0  0  0  0  0
   -0.7390   -0.5830   -0.4070 H   0  0  0  0  0  0  0  0  0  0  0  0
   -2.8830   -0.7590    0.7660 H   0  0  0  0  0  0  0  0  0  0  0  0
   -2.1990    0.0300    2.2100 H   0  0  0  0  0  0  0  0  0  0  0  0
   -4.0130   -0.3070   -2.0100 H   0  0  0  0  0  0  0  0  0  0  0  0
   -7.1520   -2.3130   -0.5360 H   0  0  0  0  0  0  0  0  0  0  0  0
 10 21  2  0  0  0  0
 10 11  1  0  0  0  0
 10 17  1  0  0  0  0
  1 11  2  0  0  0  0
  8 17  1  0  0  0  0
  1 16  1  0  0  0  0
  1  9  1  0  0  0  0
  8 16  1  0  0  0  0
  8 20  2  0  0  0  0
  4 24  1  0  0  0  0
  9 22  2  0  0  0  0
  9 18  1  0  0  0  0
 12 13  1  0  0  0  0
 13 19  1  0  0  0  0
  3  4  2  0  0  0  0
  2  3  1  0  0  0  0
  4  5  1  0  0  0  0
 12 18  1  0  0  0  0
 15 18  1  0  0  0  0
 14 19  1  0  0  0  0
 14 15  1  0  0  0  0
  2 19  1  0  0  0  0
  2  7  2  0  0  0  0
  5 23  1  0  0  0  0
  5  6  2  0  0  0  0
  6  7  1  0  0  0  0
  3 25  1  0  0  0  0
  6 26  1  0  0  0  0
  7 27  1  0  0  0  0
 11 28  1  0  0  0  0
 12 29  1  0  0  0  0
 12 30  1  0  0  0  0
 13 31  1  0  0  0  0
 13 32  1  0  0  0  0
 14 33  1  0  0  0  0
 14 34  1  0  0  0  0
 15 35  1  0  0  0  0
 15 36  1  0  0  0  0
 16 37  1  0  0  0  0
 17 38  1  0  0  0  0
M  END
> <OPENEYE_ISO_SMILES>
c1cc(c(cc1N2CCN(CC2)C(=O)c3cc(=O)[nH]c(=O)[nH]3)Cl)Br

> <OPENEYE_INCHI>
InChI=1S/C15H14BrClN4O3/c16-10-2-1-9(7-11(10)17)20-3-5-21(6-4-20)14(23)12-8-13(22)19-15(24)18-12/h1-2,7-8H,3-6H2,(H2,18,19,22,24)

> <OPENEYE_INCHIKEY>
LMYRFZVTGXUSKU-UHFFFAOYSA-N

> <FORMULA>
C15H14BrClN4O3

$$$$
