RBO
  -OEChem-02242320043D

 39 42  0     1  0  0  0  0  0999 V2000
   -1.8610   -3.2330    0.3750 C   0  0  0  0  0  0  0  0  0  0  0  0
   -3.1160   -1.3030    0.4450 C   0  0  0  0  0  0  0  0  0  0  0  0
   -1.7120    2.0190   -0.3070 C   0  0  0  0  0  0  0  0  0  0  0  0
   -2.3920    3.2170   -0.2910 C   0  0  0  0  0  0  0  0  0  0  0  0
   -3.7410    3.2500    0.0260 C   0  0  0  0  0  0  0  0  0  0  0  0
   -4.4190    2.0880    0.3270 C   0  0  0  0  0  0  0  0  0  0  0  0
   -3.7500    0.8680    0.3160 C   0  0  0  0  0  0  0  0  0  0  0  0
    0.8480   -1.0350   -1.8210 C   0  0  0  0  0  0  0  0  0  0  0  0
    4.9530    0.7290    0.7560 C   0  0  0  0  0  0  0  0  0  0  0  0
    3.7870   -0.1620    1.1000 C   0  0  0  0  0  0  0  0  0  0  0  0
    2.6590    0.0630    0.0910 C   0  0  2  0  0  0  0  0  0  0  0  0
    1.4290   -0.7470    0.5100 C   0  0  0  0  0  0  0  0  0  0  0  0
   -0.7740   -1.2630   -0.1320 C   0  0  0  0  0  0  0  0  0  0  0  0
   -1.9760   -0.5750    0.0700 C   0  0  0  0  0  0  0  0  0  0  0  0
   -2.3840    0.8360   -0.0050 C   0  0  0  0  0  0  0  0  0  0  0  0
    2.0830   -0.2220   -2.2170 C   0  0  0  0  0  0  0  0  0  0  0  0
    0.3750   -0.5880   -0.5020 N   0  0  2  0  0  0  0  0  0  0  0  0
   -4.1610   -0.4250    0.5940 N   0  0  0  0  0  0  0  0  0  0  0  0
   -3.0090   -2.6240    0.5840 N   0  0  0  0  0  0  0  0  0  0  0  0
   -0.7660   -2.5850    0.0260 N   0  0  0  0  0  0  0  0  0  0  0  0
    4.8880    1.4670   -0.1980 O   0  0  0  0  0  0  0  0  0  0  0  0
    3.0850   -0.3630   -1.2060 O   0  0  0  0  0  0  0  0  0  0  0  0
    6.0640    0.7010    1.5090 O   0  0  0  0  0  0  0  0  0  0  0  0
   -1.8130   -4.3050    0.4970 H   0  0  0  0  0  0  0  0  0  0  0  0
   -0.6610    1.9960   -0.5540 H   0  0  0  0  0  0  0  0  0  0  0  0
   -1.8720    4.1340   -0.5260 H   0  0  0  0  0  0  0  0  0  0  0  0
   -4.2660    4.1940    0.0370 H   0  0  0  0  0  0  0  0  0  0  0  0
   -5.4700    2.1240    0.5730 H   0  0  0  0  0  0  0  0  0  0  0  0
    0.0610   -0.8840   -2.5590 H   0  0  0  0  0  0  0  0  0  0  0  0
    1.1070   -2.0930   -1.7750 H   0  0  0  0  0  0  0  0  0  0  0  0
    4.1030   -1.2040    1.0640 H   0  0  0  0  0  0  0  0  0  0  0  0
    3.4310    0.0760    2.1020 H   0  0  0  0  0  0  0  0  0  0  0  0
    2.4040    1.1230    0.0610 H   0  0  0  0  0  0  0  0  0  0  0  0
    1.6980   -1.8000    0.5940 H   0  0  0  0  0  0  0  0  0  0  0  0
    1.0660   -0.3860    1.4730 H   0  0  0  0  0  0  0  0  0  0  0  0
    2.4710   -0.5890   -3.1670 H   0  0  0  0  0  0  0  0  0  0  0  0
    1.8110    0.8290   -2.3150 H   0  0  0  0  0  0  0  0  0  0  0  0
   -5.0630   -0.6750    0.8500 H   0  0  0  0  0  0  0  0  0  0  0  0
    6.7850    1.2900    1.2490 H   0  0  0  0  0  0  0  0  0  0  0  0
 16 22  1  0  0  0  0
 11 22  1  0  0  0  0
  8 16  1  0  0  0  0
 10 11  1  0  0  0  0
 11 12  1  0  0  0  0
  9 10  1  0  0  0  0
  8 17  1  0  0  0  0
  9 21  2  0  0  0  0
  9 23  1  0  0  0  0
 12 17  1  0  0  0  0
 13 17  1  0  0  0  0
  3  4  2  0  0  0  0
  3 15  1  0  0  0  0
  4  5  1  0  0  0  0
 13 14  2  0  0  0  0
 13 20  1  0  0  0  0
 14 15  1  0  0  0  0
  7 15  2  0  0  0  0
  5  6  2  0  0  0  0
  2 14  1  0  0  0  0
  1 20  2  0  0  0  0
  6  7  1  0  0  0  0
  7 18  1  0  0  0  0
  1 19  1  0  0  0  0
  2 18  1  0  0  0  0
  2 19  2  0  0  0  0
  1 24  1  0  0  0  0
  3 25  1  0  0  0  0
  4 26  1  0  0  0  0
  5 27  1  0  0  0  0
  6 28  1  0  0  0  0
  8 29  1  0  0  0  0
  8 30  1  0  0  0  0
 10 31  1  0  0  0  0
 10 32  1  0  0  0  0
 11 33  1  0  0  0  0
 12 34  1  0  0  0  0
 12 35  1  0  0  0  0
 16 36  1  0  0  0  0
 16 37  1  0  0  0  0
 18 38  1  0  0  0  0
 23 39  1  0  0  0  0
M  END
> <OPENEYE_ISO_SMILES>
c1ccc2c(c1)c3c([nH]2)ncnc3[N@@]4CCO[C@@H](C4)CC(=O)O

> <OPENEYE_INCHI>
InChI=1S/C16H16N4O3/c21-13(22)7-10-8-20(5-6-23-10)16-14-11-3-1-2-4-12(11)19-15(14)17-9-18-16/h1-4,9-10H,5-8H2,(H,21,22)(H,17,18,19)/t10-/m1/s1

> <OPENEYE_INCHIKEY>
XWEGCZDYAZUMMD-SNVBAGLBSA-N

> <FORMULA>
C16H16N4O3

$$$$
