RC3
  -OEChem-02242320043D

 39 42  0     1  0  0  0  0  0999 V2000
    4.1400    1.1890    0.4750 C   0  0  0  0  0  0  0  0  0  0  0  0
    2.7340    0.6630    0.6010 C   0  0  0  0  0  0  0  0  0  0  0  0
    2.7640   -0.8660    0.6550 C   0  0  1  0  0  0  0  0  0  0  0  0
    1.3510   -1.3970    0.9090 C   0  0  0  0  0  0  0  0  0  0  0  0
   -0.8180   -1.4400   -0.0010 C   0  0  0  0  0  0  0  0  0  0  0  0
   -1.8680   -0.5150    0.0460 C   0  0  0  0  0  0  0  0  0  0  0  0
   -1.9640    0.9460   -0.0940 C   0  0  0  0  0  0  0  0  0  0  0  0
   -3.3220    1.2670    0.0590 C   0  0  0  0  0  0  0  0  0  0  0  0
   -3.7220    2.5970   -0.0260 C   0  0  0  0  0  0  0  0  0  0  0  0
   -2.7890    3.5840   -0.2590 C   0  0  0  0  0  0  0  0  0  0  0  0
   -1.4480    3.2660   -0.4100 C   0  0  0  0  0  0  0  0  0  0  0  0
   -1.0320    1.9540   -0.3290 C   0  0  0  0  0  0  0  0  0  0  0  0
   -3.1710   -0.9830    0.2750 C   0  0  0  0  0  0  0  0  0  0  0  0
   -2.3400   -3.1280    0.3850 C   0  0  0  0  0  0  0  0  0  0  0  0
    1.0060   -1.5650   -1.4800 C   0  0  0  0  0  0  0  0  0  0  0  0
    2.4230   -1.0330   -1.7100 C   0  0  0  0  0  0  0  0  0  0  0  0
    0.4830   -1.0230   -0.2180 N   0  0  2  0  0  0  0  0  0  0  0  0
   -4.0240    0.0940    0.2790 N   0  0  0  0  0  0  0  0  0  0  0  0
   -3.3560   -2.2930    0.4370 N   0  0  0  0  0  0  0  0  0  0  0  0
   -1.1000   -2.7290    0.1740 N   0  0  0  0  0  0  0  0  0  0  0  0
    4.3580    2.5120    0.4090 O   0  0  0  0  0  0  0  0  0  0  0  0
    3.2440   -1.3780   -0.5910 O   0  0  0  0  0  0  0  0  0  0  0  0
    5.0710    0.4210    0.4370 O   0  0  0  0  0  0  0  0  0  0  0  0
    2.2820    1.0500    1.5150 H   0  0  0  0  0  0  0  0  0  0  0  0
    2.1460    0.9840   -0.2590 H   0  0  0  0  0  0  0  0  0  0  0  0
    3.4240   -1.1890    1.4610 H   0  0  0  0  0  0  0  0  0  0  0  0
    1.3810   -2.4830    1.0000 H   0  0  0  0  0  0  0  0  0  0  0  0
    0.9590   -0.9640    1.8290 H   0  0  0  0  0  0  0  0  0  0  0  0
   -4.7640    2.8550    0.0890 H   0  0  0  0  0  0  0  0  0  0  0  0
   -3.1050    4.6150   -0.3240 H   0  0  0  0  0  0  0  0  0  0  0  0
   -0.7260    4.0490   -0.5910 H   0  0  0  0  0  0  0  0  0  0  0  0
    0.0130    1.7090   -0.4470 H   0  0  0  0  0  0  0  0  0  0  0  0
   -2.5290   -4.1830    0.5220 H   0  0  0  0  0  0  0  0  0  0  0  0
    0.3630   -1.2550   -2.3040 H   0  0  0  0  0  0  0  0  0  0  0  0
    1.0300   -2.6540   -1.4270 H   0  0  0  0  0  0  0  0  0  0  0  0
    2.8360   -1.4770   -2.6150 H   0  0  0  0  0  0  0  0  0  0  0  0
    2.3910    0.0520   -1.8180 H   0  0  0  0  0  0  0  0  0  0  0  0
   -4.9830    0.0400    0.4160 H   0  0  0  0  0  0  0  0  0  0  0  0
    5.2770    2.8020    0.3290 H   0  0  0  0  0  0  0  0  0  0  0  0
  1 23  2  0  0  0  0
  1 21  1  0  0  0  0
  1  2  1  0  0  0  0
 16 22  1  0  0  0  0
  3 22  1  0  0  0  0
  2  3  1  0  0  0  0
 15 16  1  0  0  0  0
  3  4  1  0  0  0  0
 15 17  1  0  0  0  0
  4 17  1  0  0  0  0
  5 17  1  0  0  0  0
 11 12  2  0  0  0  0
  7 12  1  0  0  0  0
 10 11  1  0  0  0  0
  5 20  2  0  0  0  0
  5  6  1  0  0  0  0
  6  7  1  0  0  0  0
  7  8  2  0  0  0  0
  9 10  2  0  0  0  0
 14 20  1  0  0  0  0
  6 13  2  0  0  0  0
  8  9  1  0  0  0  0
  8 18  1  0  0  0  0
 14 19  2  0  0  0  0
 13 18  1  0  0  0  0
 13 19  1  0  0  0  0
  2 24  1  0  0  0  0
  2 25  1  0  0  0  0
  3 26  1  0  0  0  0
  4 27  1  0  0  0  0
  4 28  1  0  0  0  0
  9 29  1  0  0  0  0
 10 30  1  0  0  0  0
 11 31  1  0  0  0  0
 12 32  1  0  0  0  0
 14 33  1  0  0  0  0
 15 34  1  0  0  0  0
 15 35  1  0  0  0  0
 16 36  1  0  0  0  0
 16 37  1  0  0  0  0
 18 38  1  0  0  0  0
 21 39  1  0  0  0  0
M  END
> <OPENEYE_ISO_SMILES>
c1ccc2c(c1)c3c([nH]2)ncnc3[N@@]4CCO[C@H](C4)CC(=O)O

> <OPENEYE_INCHI>
InChI=1S/C16H16N4O3/c21-13(22)7-10-8-20(5-6-23-10)16-14-11-3-1-2-4-12(11)19-15(14)17-9-18-16/h1-4,9-10H,5-8H2,(H,21,22)(H,17,18,19)/t10-/m0/s1

> <OPENEYE_INCHIKEY>
XWEGCZDYAZUMMD-JTQLQIEISA-N

> <FORMULA>
C16H16N4O3

$$$$
