LKL
  -OEChem-02242320033D

 23 23  0     1  0  0  0  0  0999 V2000
   -1.8920    0.5160   -0.2910 N   0  0  1  0  0  0  0  0  0  0  0  0
   -0.5260    0.2610   -0.1940 C   0  0  0  0  0  0  0  0  0  0  0  0
    1.2380   -1.1940   -0.5060 C   0  0  0  0  0  0  0  0  0  0  0  0
    2.1390   -0.2700   -0.0160 C   0  0  0  0  0  0  0  0  0  0  0  0
    1.6800    0.9720    0.4060 C   0  0  0  0  0  0  0  0  0  0  0  0
    0.3240    1.2400    0.3150 C   0  0  0  0  0  0  0  0  0  0  0  0
   -2.1460    1.7220   -1.0900 C   0  0  0  0  0  0  0  0  0  0  0  0
   -2.6060   -0.6420   -0.8440 C   0  0  0  0  0  0  0  0  0  0  0  0
   -2.7370   -1.7220    0.2320 C   0  0  0  0  0  0  0  0  0  0  0  0
   -3.5440   -1.2300    1.3040 O   0  0  0  0  0  0  0  0  0  0  0  0
   -0.0490   -0.9110   -0.5810 N   0  0  0  0  0  0  0  0  0  0  0  0
    3.8300   -0.6550    0.0710 Cl  0  0  0  0  0  0  0  0  0  0  0  0
   -0.1660    2.4340    0.7140 F   0  0  0  0  0  0  0  0  0  0  0  0
    1.5910   -2.1600   -0.8350 H   0  0  0  0  0  0  0  0  0  0  0  0
    2.3640    1.7120    0.7930 H   0  0  0  0  0  0  0  0  0  0  0  0
   -3.2210    1.8740   -1.1880 H   0  0  0  0  0  0  0  0  0  0  0  0
   -1.7010    2.5860   -0.5960 H   0  0  0  0  0  0  0  0  0  0  0  0
   -1.7050    1.6030   -2.0790 H   0  0  0  0  0  0  0  0  0  0  0  0
   -3.5980   -0.3340   -1.1720 H   0  0  0  0  0  0  0  0  0  0  0  0
   -2.0500   -1.0400   -1.6930 H   0  0  0  0  0  0  0  0  0  0  0  0
   -3.2030   -2.6080   -0.1980 H   0  0  0  0  0  0  0  0  0  0  0  0
   -1.7480   -1.9790    0.6110 H   0  0  0  0  0  0  0  0  0  0  0  0
   -3.6700   -1.8640    2.0240 H   0  0  0  0  0  0  0  0  0  0  0  0
  1  7  1  0  0  0  0
  1  8  1  0  0  0  0
  8  9  1  0  0  0  0
  9 10  1  0  0  0  0
  1  2  1  0  0  0  0
  2 11  2  0  0  0  0
  3 11  1  0  0  0  0
  3  4  2  0  0  0  0
  4  5  1  0  0  0  0
  5  6  2  0  0  0  0
  6 13  1  0  0  0  0
  2  6  1  0  0  0  0
  3 14  1  0  0  0  0
  5 15  1  0  0  0  0
  7 16  1  0  0  0  0
  7 17  1  0  0  0  0
  7 18  1  0  0  0  0
  8 19  1  0  0  0  0
  8 20  1  0  0  0  0
  9 21  1  0  0  0  0
  9 22  1  0  0  0  0
 10 23  1  0  0  0  0
  4 12  1  0  0  0  0
M  END
> <OPENEYE_ISO_SMILES>
C[N@@](CCO)c1c(cc(cn1)Cl)F

> <OPENEYE_INCHI>
InChI=1S/C8H10ClFN2O/c1-12(2-3-13)8-7(10)4-6(9)5-11-8/h4-5,13H,2-3H2,1H3

> <OPENEYE_INCHIKEY>
WBIQOAOWXPGYEU-UHFFFAOYSA-N

> <FORMULA>
C8H10ClFN2O

$$$$
