@<TRIPOS>MOLECULE
/home/pku/3cl/gett_pdb/8F45/8F45_mol2/ligand/8F45_XF8.pdb
 39 41 0 0 0
SMALL
GASTEIGER

@<TRIPOS>ATOM
      1  C02       11.0700   24.3730   25.9940 C.2   401  XF8401      0.4215
      2  C04       11.7160   22.3550   27.1270 C.3   401  XF8401      0.1761
      3  C05       12.7830   21.9190   28.1500 C.3   401  XF8401      0.0312
      4  C06       14.2030   22.1380   27.6110 C.3   401  XF8401      0.0022
      5  C07       15.2560   22.1260   28.7800 C.3   401  XF8401      0.0001
      6  C08       14.4940   21.1170   26.5280 C.3   401  XF8401      0.0001
      7  C09       10.3840   21.8580   27.6600 C.2   401  XF8401      0.2614
      8  C11        8.6350   20.1670   27.8700 C.3   401  XF8401      0.1351
      9  C12        7.5880   19.9250   26.7480 C.3   401  XF8401      0.0340
     10  C13        7.0540   21.2300   26.1570 C.3   401  XF8401      0.0818
     11  C14        6.0160   21.0610   25.0940 C.2   401  XF8401      0.2410
     12  C16        5.1870   22.8070   26.3460 C.3   401  XF8401      0.1156
     13  C17        6.2960   22.0980   27.1610 C.3   401  XF8401      0.0326
     14  C19        9.1060   18.8850   28.5520 C.3   401  XF8401      0.2487
     15  C21        8.1150   18.4230   29.6070 C.2   401  XF8401      0.2736
     16  C23        7.4930   18.1250   32.0330 C.3   401  XF8401      0.0955
     17  C24        6.5810   19.2310   32.6910 C.3   401  XF8401      0.0234
     18  C25        7.7870   18.7010   33.4900 C.3   401  XF8401      0.0234
     19  C29       11.0030   26.2200   24.4750 C.3   401  XF8401      0.2202
     20  C30       12.2830   27.0940   24.1110 C.3   401  XF8401      0.0837
     21  C31       12.6580   28.0470   25.2280 C.3   401  XF8401      0.0149
     22  C32       13.4530   26.2030   23.6020 C.3   401  XF8401      0.0149
     23  C34       10.2960   29.2620   23.0250 C.ar  401  XF8401      0.0253
     24  C35        8.9800   28.7360   22.9360 C.ar  401  XF8401      0.0062
     25  C36        7.8580   29.5620   23.2240 C.ar  401  XF8401      0.0005
     26  C37        8.0390   30.9160   23.6040 C.ar  401  XF8401      0.0000
     27  C38        9.3530   31.4380   23.7040 C.ar  401  XF8401      0.0005
     28  C39       10.4780   30.6140   23.4150 C.ar  401  XF8401      0.0062
     29  N03       11.6860   23.7730   27.0060 N.am  401  XF8401     -0.1611
     30  N10        9.8420   20.6790   27.3270 N.am  401  XF8401     -0.2026
     31  N15        4.9440   21.9470   25.1670 N.am  401  XF8401     -0.2054
     32  N22        8.3990   18.5190   30.9630 N.am  401  XF8401     -0.2050
     33  O01       10.4330   23.6970   25.1360 O.2   401  XF8401     -0.2246
     34  O18        6.1410   20.2010   24.1940 O.2   401  XF8401     -0.2734
     35  O20       10.2440   19.3530   29.3290 O.3   401  XF8401     -0.2113
     36  O26        6.9710   18.0300   29.2340 O.2   401  XF8401     -0.2705
     37  O27        9.7570   22.6310   28.4460 O.2   401  XF8401     -0.2715
     38  O28       11.1020   25.7100   25.7940 O.3   401  XF8401     -0.4326
     39  S33       11.8000   28.1690   22.6380 S.3   401  XF8401     -0.1117
@<TRIPOS>BOND
     1    39    23    1
     2    39    20    1
     3    24    23   ar
     4    24    25   ar
     5    23    28   ar
     6    25    26   ar
     7    28    27   ar
     8    22    20    1
     9    26    27   ar
    10    20    19    1
    11    20    21    1
    12    34    11    2
    13    19    38    1
    14    11    31   am
    15    11    10    1
    16    33     1    2
    17    31    12    1
    18    38     1    1
    19     1    29   am
    20    10     9    1
    21    10    13    1
    22    12    13    1
    23     6     4    1
    24     9     8    1
    25    29     2    1
    26     2     7    1
    27     2     3    1
    28    30     7   am
    29    30     8    1
    30     4     3    1
    31     4     5    1
    32     7    37    2
    33     8    14    1
    34    14    35    1
    35    14    15    1
    36    36    15    2
    37    15    32   am
    38    32    16    1
    39    16    17    1
    40    16    18    1
    41    17    18    1
