@<TRIPOS>MOLECULE
/home/pku/3cl/gett_pdb/5RVQ/5RVQ_mol2/ligand/5RVQ_4BY.pdb
 21 22 0 0 0
SMALL
GASTEIGER

@<TRIPOS>ATOM
      1  C1        10.8630    2.3730   18.1110 C.ar  201  4BY201      0.0629
      2  N2        11.2130    2.6860   19.3420 N.ar  201  4BY201     -0.3532
      3  C3        10.2720    3.4640   17.5010 C.ar  201  4BY201     -0.0275
      4  C4        10.2650    4.4740   18.4700 C.ar  201  4BY201      0.0005
      5  C5        10.8580    3.9480   19.6030 C.ar  201  4BY201      0.0470
      6  C6        11.1230    1.0290   17.4660 C.2   201  4BY201      0.0878
      7  C7         9.7920    5.7890   18.4550 C.ar  201  4BY201     -0.0496
      8  O8        11.1530    0.9200   16.2180 O.co2 201  4BY201     -0.5431
      9  C9        10.9960    4.7340   20.7500 C.ar  201  4BY201     -0.0375
     10  O10       11.3320    0.0410   18.2060 O.co2 201  4BY201     -0.5431
     11  C11        9.9320    6.5670   19.5980 C.ar  201  4BY201     -0.0498
     12  C12       10.5330    6.0350   20.7370 C.ar  201  4BY201     -0.0569
     13  C13        9.4200    8.0080   19.6250 C.3   201  4BY201     -0.0397
     14  H3         9.9370    3.5120   16.6350 H     201  4BY201      0.0645
     15  H7         9.3900    6.1380   17.6930 H     201  4BY201      0.0627
     16  H9        11.3970    4.3850   21.5130 H     201  4BY201      0.0638
     17  H12       10.6200    6.5610   21.4990 H     201  4BY201      0.0621
     18  H13       10.1650    8.6130   19.7660 H     201  4BY201      0.0278
     19 H13A        8.7800    8.1100   20.3460 H     201  4BY201      0.0278
     20 H13B        8.9910    8.2150   18.7800 H     201  4BY201      0.0278
     21  HN2       11.6010    2.1560   19.8970 H     201  4BY201      0.1659
@<TRIPOS>UNITY_ATOM_ATTR
10 1
charge -1
@<TRIPOS>BOND
     1     8     6   ar
     2    14     3    1
     3     6     1    1
     4     6    10   ar
     5     3     1   ar
     6     3     4   ar
     7    15     7    1
     8     1     2   ar
     9     7     4   ar
    10     7    11   ar
    11     4     5   ar
    12    20    13    1
    13     2     5   ar
    14     2    21    1
    15    11    13    1
    16    11    12   ar
    17     5     9   ar
    18    13    18    1
    19    13    19    1
    20    12     9   ar
    21    12    17    1
    22     9    16    1
