05R
  -OEChem-02242320003D

 18 18  0     0  0  0  0  0  0999 V2000
    3.3770   -0.0860   -0.2650 C   0  0  0  0  0  0  0  0  0  0  0  0
    2.8280    0.0010   -1.3370 O   0  0  0  0  0  0  0  0  0  0  0  0
    2.5750    0.0410    1.0050 C   0  0  0  0  0  0  0  0  0  0  0  0
    1.1270    0.2770    0.6630 C   0  0  0  0  0  0  0  0  0  0  0  0
    0.6560    1.5670    0.5030 C   0  0  0  0  0  0  0  0  0  0  0  0
   -0.6720    1.7860    0.1900 C   0  0  0  0  0  0  0  0  0  0  0  0
   -1.5310    0.7130    0.0350 C   0  0  0  0  0  0  0  0  0  0  0  0
   -3.2000    0.9870   -0.3600 Cl  0  0  0  0  0  0  0  0  0  0  0  0
   -1.0600   -0.5790    0.1940 C   0  0  0  0  0  0  0  0  0  0  0  0
   -2.1380   -1.9270   -0.0000 Cl  0  0  0  0  0  0  0  0  0  0  0  0
    0.2700   -0.7960    0.5030 C   0  0  0  0  0  0  0  0  0  0  0  0
    2.6660   -0.8770    1.5860 H   0  0  0  0  0  0  0  0  0  0  0  0
    2.9520    0.8800    1.5900 H   0  0  0  0  0  0  0  0  0  0  0  0
    1.3270    2.4050    0.6250 H   0  0  0  0  0  0  0  0  0  0  0  0
   -1.0390    2.7940    0.0660 H   0  0  0  0  0  0  0  0  0  0  0  0
    0.6400   -1.8040    0.6230 H   0  0  0  0  0  0  0  0  0  0  0  0
    4.7010   -0.3020   -0.2040 O   0  0  0  0  0  0  0  0  0  0  0  0
    5.1720   -0.3760   -1.0450 H   0  0  0  0  0  0  0  0  0  0  0  0
  1  2  2  0  0  0  0
  1  3  1  0  0  0  0
  3  4  1  0  0  0  0
  3 12  1  0  0  0  0
  3 13  1  0  0  0  0
  4  5  2  0  0  0  0
  4 11  1  0  0  0  0
  5  6  1  0  0  0  0
  5 14  1  0  0  0  0
  6  7  2  0  0  0  0
  6 15  1  0  0  0  0
  7  8  1  0  0  0  0
  7  9  1  0  0  0  0
  9 11  2  0  0  0  0
  9 10  1  0  0  0  0
 11 16  1  0  0  0  0
  1 17  1  0  0  0  0
 17 18  1  0  0  0  0
M  END
> <OPENEYE_ISO_SMILES>
c1cc(c(cc1CC(=O)O)Cl)Cl

> <OPENEYE_INCHI>
InChI=1S/C8H6Cl2O2/c9-6-2-1-5(3-7(6)10)4-8(11)12/h1-3H,4H2,(H,11,12)

> <OPENEYE_INCHIKEY>
ZOUPGSMSNQLUNW-UHFFFAOYSA-N

> <FORMULA>
C8H6Cl2O2

$$$$
