@<TRIPOS>MOLECULE
/home/pku/3cl/gett_pdb/5SRK/5SRK_mol2/ligand/5SRK_R9U.pdb
 43 46 0 0 0
SMALL
GASTEIGER

@<TRIPOS>ATOM
      1  C16      -48.8790  -29.2660    3.6220 C.ar  201  R9U201     -0.0491
      2  C15      -50.2580  -29.1670    3.7170 C.ar  201  R9U201     -0.0257
      3  C14      -50.8520  -29.0230    4.9680 C.ar  201  R9U201      0.1254
      4  C13      -50.0910  -28.9790    6.1200 C.ar  201  R9U201     -0.0025
      5  C12      -48.6890  -29.0710    6.0310 C.ar  201  R9U201      0.0515
      6  C11      -48.0960  -29.2220    4.7990 C.ar  201  R9U201      0.0124
      7  C10      -46.6660  -29.2990    5.0400 C.ar  201  R9U201      0.0663
      8  C19      -46.5040  -29.1950    6.3920 C.ar  201  R9U201      0.1442
      9  C01      -44.0310  -25.2050   -1.5130 C.3   201  R9U201      0.0736
     10  C05      -45.5230  -28.6860    0.1300 C.2   201  R9U201      0.2621
     11  C06      -44.8700  -30.0150    0.5460 C.3   201  R9U201      0.1513
     12  C07      -44.4900  -29.8500    2.0240 C.3   201  R9U201      0.0485
     13  C09      -45.5110  -29.4450    4.2470 C.ar  201  R9U201      0.1345
     14  C21      -44.2020  -29.3770    6.1260 C.ar  201  R9U201      0.1204
     15  C23      -46.3840  -30.8870    2.5320 C.3   201  R9U201      0.0371
     16  C24      -46.8390  -31.0830    1.0900 C.3   201  R9U201      0.0644
     17  F17      -52.2000  -28.9280    5.0610 F     201  R9U201     -0.2054
     18  N04      -44.6230  -27.6160   -0.1600 N.am  201  R9U201     -0.1880
     19  N08      -45.6820  -29.6170    2.8260 N.pl3 201  R9U201     -0.3094
     20  N18      -47.7170  -29.0660    6.9730 N.ar  201  R9U201     -0.3389
     21  N20      -45.2550  -29.2370    6.8950 N.ar  201  R9U201     -0.2178
     22  N22      -44.3080  -29.4870    4.8060 N.ar  201  R9U201     -0.2200
     23  O03      -46.4620  -26.3050   -1.4720 O.2   201  R9U201     -0.1554
     24  O25      -45.7790  -31.0070    0.2090 O.3   201  R9U201     -0.3642
     25  O26      -46.6950  -28.5140    0.0400 O.2   201  R9U201     -0.2713
     26  O27      -45.8540  -25.4080    0.4930 O.2   201  R9U201     -0.1554
     27  S02      -45.2850  -26.1340   -0.6280 S.O2  201  R9U201      0.0424
     28 H161      -48.4070  -29.3820    2.6480 H     201  R9U201      0.0625
     29 H151      -50.8640  -29.2030    2.8260 H     201  R9U201      0.0646
     30 H131      -50.5660  -28.8600    7.0820 H     201  R9U201      0.0667
     31 H013      -43.7510  -25.7900   -2.3760 H     201  R9U201      0.0482
     32 H012      -43.1730  -25.0230   -0.8890 H     201  R9U201      0.0482
     33 H011      -44.4700  -24.2700   -1.8090 H     201  R9U201      0.0482
     34 H061      -43.9600  -30.1370   -0.0220 H     201  R9U201      0.0709
     35 H072      -43.8710  -28.9760    2.0970 H     201  R9U201      0.0494
     36 H071      -43.9260  -30.7080    2.4040 H     201  R9U201      0.0494
     37 H211      -43.2310  -29.3880    6.5910 H     201  R9U201      0.1048
     38 H232      -45.6640  -31.6800    2.7110 H     201  R9U201      0.0487
     39 H231      -47.2110  -31.0610    3.1990 H     201  R9U201      0.0487
     40 H241      -47.2440  -32.0760    1.0290 H     201  R9U201      0.0576
     41 H242      -47.6200  -30.3750    0.8210 H     201  R9U201      0.0576
     42 H041      -43.6380  -27.7650   -0.0890 H     201  R9U201      0.1762
     43 H181      -47.8740  -28.9640    7.9550 H     201  R9U201      0.1673
@<TRIPOS>BOND
     1    31     9    1
     2    33     9    1
     3     9    32    1
     4     9    27    1
     5    23    27    2
     6    27    18    1
     7    27    26    2
     8    18    42    1
     9    18    10   am
    10    34    11    1
    11    25    10    2
    12    10    11    1
    13    24    11    1
    14    24    16    1
    15    11    12    1
    16    41    16    1
    17    40    16    1
    18    16    15    1
    19    12    35    1
    20    12    36    1
    21    12    19    1
    22    15    38    1
    23    15    19    1
    24    15    39    1
    25    28     1    1
    26    19    13    1
    27    29     2    1
    28     1     2   ar
    29     1     6   ar
    30     2     3   ar
    31    13    22   ar
    32    13     7   ar
    33     6     7   ar
    34     6     5   ar
    35    22    14   ar
    36     3    17    1
    37     3     4   ar
    38     7     8   ar
    39     5     4   ar
    40     5    20   ar
    41     4    30    1
    42    14    37    1
    43    14    21   ar
    44     8    21   ar
    45     8    20   ar
    46    20    43    1
