NX7
  -OEChem-02242320033D

 26 27  0     0  0  0  0  0  0999 V2000
   -1.4550   -1.2110    0.1860 C   0  0  0  0  0  0  0  0  0  0  0  0
   -0.8680    0.0510    0.3280 C   0  0  0  0  0  0  0  0  0  0  0  0
    0.4630    0.1850    0.9510 C   0  0  0  0  0  0  0  0  0  0  0  0
    2.9550    0.2480    0.6760 C   0  0  0  0  0  0  0  0  0  0  0  0
    3.8860    0.0980   -0.5450 C   0  0  0  0  0  0  0  0  0  0  0  0
    1.6020   -0.0600   -1.2740 C   0  0  0  0  0  0  0  0  0  0  0  0
    1.5730    0.1300    0.1880 N   0  0  0  0  0  0  0  0  0  0  0  0
   -1.5500    1.1860   -0.1250 C   0  0  0  0  0  0  0  0  0  0  0  0
    0.5590    0.3450    2.1520 O   0  0  0  0  0  0  0  0  0  0  0  0
   -2.7960    1.0510   -0.7080 C   0  0  0  0  0  0  0  0  0  0  0  0
   -3.3690   -0.2000   -0.8440 C   0  0  0  0  0  0  0  0  0  0  0  0
   -2.7010   -1.3270   -0.3990 C   0  0  0  0  0  0  0  0  0  0  0  0
    2.9990   -0.6610   -1.5680 C   0  0  0  0  0  0  0  0  0  0  0  0
   -0.9920    2.4090    0.0070 F   0  0  0  0  0  0  0  0  0  0  0  0
   -0.8020   -2.3130    0.6140 F   0  0  0  0  0  0  0  0  0  0  0  0
    3.1610   -0.5410    1.3990 H   0  0  0  0  0  0  0  0  0  0  0  0
    3.1020    1.2230    1.1390 H   0  0  0  0  0  0  0  0  0  0  0  0
    4.1730    1.0750   -0.9340 H   0  0  0  0  0  0  0  0  0  0  0  0
    4.7690   -0.4880   -0.2880 H   0  0  0  0  0  0  0  0  0  0  0  0
    0.8190   -0.7520   -1.5820 H   0  0  0  0  0  0  0  0  0  0  0  0
    1.4840    0.8970   -1.7830 H   0  0  0  0  0  0  0  0  0  0  0  0
   -3.3240    1.9260   -1.0580 H   0  0  0  0  0  0  0  0  0  0  0  0
   -4.3430   -0.2980   -1.3000 H   0  0  0  0  0  0  0  0  0  0  0  0
   -3.1560   -2.3000   -0.5100 H   0  0  0  0  0  0  0  0  0  0  0  0
    3.3100   -0.4460   -2.5900 H   0  0  0  0  0  0  0  0  0  0  0  0
    3.0110   -1.7340   -1.3750 H   0  0  0  0  0  0  0  0  0  0  0  0
  5 13  1  0  0  0  0
  6 13  1  0  0  0  0
  4  5  1  0  0  0  0
  6  7  1  0  0  0  0
  4  7  1  0  0  0  0
  3  7  1  0  0  0  0
  8 14  1  0  0  0  0
  2  3  1  0  0  0  0
  3  9  2  0  0  0  0
  2  8  2  0  0  0  0
  1  2  1  0  0  0  0
  8 10  1  0  0  0  0
  1 15  1  0  0  0  0
  1 12  2  0  0  0  0
 10 11  2  0  0  0  0
 11 12  1  0  0  0  0
  4 16  1  0  0  0  0
  4 17  1  0  0  0  0
  5 18  1  0  0  0  0
  5 19  1  0  0  0  0
  6 20  1  0  0  0  0
  6 21  1  0  0  0  0
 10 22  1  0  0  0  0
 11 23  1  0  0  0  0
 12 24  1  0  0  0  0
 13 25  1  0  0  0  0
 13 26  1  0  0  0  0
M  END
> <OPENEYE_ISO_SMILES>
c1cc(c(c(c1)F)C(=O)N2CCCC2)F

> <OPENEYE_INCHI>
InChI=1S/C11H11F2NO/c12-8-4-3-5-9(13)10(8)11(15)14-6-1-2-7-14/h3-5H,1-2,6-7H2

> <OPENEYE_INCHIKEY>
WKDBMZQECSVNDS-UHFFFAOYSA-N

> <FORMULA>
C11H11F2NO

$$$$
