LZ1
  -OEChem-02242320033D

 15 16  0     0  0  0  0  0  0999 V2000
   26.6470    4.4300   64.2630 C   0  0  0  0  0  0  0  0  0  0  0  0
   27.3290    5.6500   64.3750 C   0  0  0  0  0  0  0  0  0  0  0  0
   26.8640    6.7380   63.6400 C   0  0  0  0  0  0  0  0  0  0  0  0
   25.7620    6.6120   62.8130 C   0  0  0  0  0  0  0  0  0  0  0  0
   25.1030    5.4010   62.7060 C   0  0  0  0  0  0  0  0  0  0  0  0
   25.5450    4.3090   63.4260 C   0  0  0  0  0  0  0  0  0  0  0  0
   27.3080    3.5470   65.0780 N   0  0  0  0  0  0  0  0  0  0  0  0
   28.3840    5.4130   65.2900 C   0  0  0  0  0  0  0  0  0  0  0  0
   28.3640    4.1370   65.6980 N   0  0  0  0  0  0  0  0  0  0  0  0
   25.0340    3.3610   63.3390 H   0  0  0  0  0  0  0  0  0  0  0  0
   27.0460    2.5900   65.2010 H   0  0  0  0  0  0  0  0  0  0  0  0
   27.3690    7.6900   63.7160 H   0  0  0  0  0  0  0  0  0  0  0  0
   29.1010    6.1540   65.6120 H   0  0  0  0  0  0  0  0  0  0  0  0
   25.4140    7.4640   62.2480 H   0  0  0  0  0  0  0  0  0  0  0  0
   24.2430    5.3090   62.0590 H   0  0  0  0  0  0  0  0  0  0  0  0
  1  2  1  0  0  0  0
  1  6  2  0  0  0  0
  1  7  1  0  0  0  0
  2  3  2  0  0  0  0
  2  8  1  0  0  0  0
  3  4  1  0  0  0  0
  4  5  2  0  0  0  0
  5  6  1  0  0  0  0
  7  9  1  0  0  0  0
  8  9  2  0  0  0  0
  6 10  1  0  0  0  0
  7 11  1  0  0  0  0
  3 12  1  0  0  0  0
  8 13  1  0  0  0  0
  4 14  1  0  0  0  0
  5 15  1  0  0  0  0
M  END
> <OPENEYE_ISO_SMILES>
c1ccc2c(c1)cn[nH]2

> <OPENEYE_INCHI>
InChI=1S/C7H6N2/c1-2-4-7-6(3-1)5-8-9-7/h1-5H,(H,8,9)

> <OPENEYE_INCHIKEY>
BAXOFTOLAUCFNW-UHFFFAOYSA-N

> <FORMULA>
C7H6N2

$$$$
