UTL
  -OEChem-02242320043D

 74 75  0     1  0  0  0  0  0999 V2000
    4.5910    3.4620   -0.7510 C   0  0  0  0  0  0  0  0  0  0  0  0
   -4.7970    1.4210   -0.5080 C   0  0  0  0  0  0  0  0  0  0  0  0
   -5.0700   -1.0590   -0.6390 C   0  0  0  0  0  0  0  0  0  0  0  0
   -4.8670    0.1280    0.3050 C   0  0  0  0  0  0  0  0  0  0  0  0
   -3.5630   -0.0570    1.0830 C   0  0  0  0  0  0  0  0  0  0  0  0
   -7.6560    0.3420    0.4040 C   0  0  0  0  0  0  0  0  0  0  0  0
  -10.0330    0.4510    0.1040 C   0  0  0  0  0  0  0  0  0  0  0  0
   -9.8550    0.5230   -1.2680 C   0  0  0  0  0  0  0  0  0  0  0  0
   -7.4800    0.4200   -0.9720 C   0  0  0  0  0  0  0  0  0  0  0  0
   -1.2230   -0.2940    0.6800 C   0  0  0  0  0  0  0  0  0  0  0  0
    1.1890   -0.5480    0.4450 C   0  0  1  0  0  0  0  0  0  0  0  0
    1.4470   -2.0370    0.6850 C   0  0  0  0  0  0  0  0  0  0  0  0
    0.4780   -2.5580    1.7480 C   0  0  0  0  0  0  0  0  0  0  0  0
    0.6510   -4.0710    1.8980 C   0  0  0  0  0  0  0  0  0  0  0  0
    0.7730   -1.8750    3.0850 C   0  0  0  0  0  0  0  0  0  0  0  0
    2.2220   -0.0070   -0.5100 C   0  0  0  0  0  0  0  0  0  0  0  0
    4.5340    0.4630   -1.1200 C   0  0  1  0  0  0  0  0  0  0  0  0
    5.6240    1.1930   -0.3320 C   0  0  0  0  0  0  0  0  0  0  0  0
    5.0290    2.4410    0.3240 C   0  0  1  0  0  0  0  0  0  0  0  0
    5.1590   -0.6930   -1.9040 C   0  0  2  0  0  0  0  0  0  0  0  0
    6.0850    3.1730    1.1220 C   0  0  0  0  0  0  0  0  0  0  0  0
    4.9440    4.8040   -0.0730 C   0  0  0  0  0  0  0  0  0  0  0  0
   -8.9380    0.3550    0.9400 C   0  0  0  0  0  0  0  0  0  0  0  0
   -8.5780    0.5100   -1.8040 C   0  0  0  0  0  0  0  0  0  0  0  0
  -10.9280    0.6170   -2.0830 F   0  0  0  0  0  0  0  0  0  0  0  0
   -0.1470   -0.3700   -0.1290 N   0  0  0  0  0  0  0  0  0  0  0  0
    3.5300   -0.0630   -0.1910 N   0  0  0  0  0  0  0  0  0  0  0  0
    6.0180    4.4930    0.8770 N   0  0  0  0  0  0  0  0  0  0  0  0
   -1.0840   -0.3730    1.8840 O   0  0  0  0  0  0  0  0  0  0  0  0
    6.8770    2.6460    1.8750 O   0  0  0  0  0  0  0  0  0  0  0  0
    4.1630   -1.3020   -2.7290 O   0  0  0  0  0  0  0  0  0  0  0  0
    1.8750    0.4790   -1.5660 O   0  0  0  0  0  0  0  0  0  0  0  0
   -2.4510   -0.1310    0.1530 O   0  0  0  0  0  0  0  0  0  0  0  0
   -6.2570    0.2200    1.4680 S   0  0  0  0  0  0  0  0  0  0  0  0
    5.1600    3.3280   -1.6710 H   0  0  0  0  0  0  0  0  0  0  0  0
    3.5210    3.3910   -0.9440 H   0  0  0  0  0  0  0  0  0  0  0  0
   -4.1870    1.2590   -1.3970 H   0  0  0  0  0  0  0  0  0  0  0  0
   -5.8020    1.7180   -0.8070 H   0  0  0  0  0  0  0  0  0  0  0  0
   -4.3510    2.2090    0.0990 H   0  0  0  0  0  0  0  0  0  0  0  0
   -4.3590   -0.9930   -1.4630 H   0  0  0  0  0  0  0  0  0  0  0  0
   -4.9110   -1.9890   -0.0940 H   0  0  0  0  0  0  0  0  0  0  0  0
   -6.0860   -1.0390   -1.0340 H   0  0  0  0  0  0  0  0  0  0  0  0
   -3.4180    0.7880    1.7560 H   0  0  0  0  0  0  0  0  0  0  0  0
   -3.6130   -0.9790    1.6630 H   0  0  0  0  0  0  0  0  0  0  0  0
  -11.0300    0.4600    0.5190 H   0  0  0  0  0  0  0  0  0  0  0  0
   -6.4840    0.4110   -1.3900 H   0  0  0  0  0  0  0  0  0  0  0  0
    1.2530   -0.0110    1.3910 H   0  0  0  0  0  0  0  0  0  0  0  0
    1.2970   -2.5860   -0.2450 H   0  0  0  0  0  0  0  0  0  0  0  0
    2.4730   -2.1770    1.0280 H   0  0  0  0  0  0  0  0  0  0  0  0
   -0.5450   -2.3370    1.4450 H   0  0  0  0  0  0  0  0  0  0  0  0
    1.6750   -4.2910    2.2010 H   0  0  0  0  0  0  0  0  0  0  0  0
   -0.0390   -4.4420    2.6560 H   0  0  0  0  0  0  0  0  0  0  0  0
    0.4410   -4.5570    0.9460 H   0  0  0  0  0  0  0  0  0  0  0  0
    0.6500   -0.7980    2.9780 H   0  0  0  0  0  0  0  0  0  0  0  0
    0.0830   -2.2460    3.8420 H   0  0  0  0  0  0  0  0  0  0  0  0
    1.7970   -2.0960    3.3870 H   0  0  0  0  0  0  0  0  0  0  0  0
    4.0590    1.1580   -1.8120 H   0  0  0  0  0  0  0  0  0  0  0  0
    6.0210    0.5320    0.4380 H   0  0  0  0  0  0  0  0  0  0  0  0
    6.4260    1.4860   -1.0090 H   0  0  0  0  0  0  0  0  0  0  0  0
    4.1860    2.1710    0.9600 H   0  0  0  0  0  0  0  0  0  0  0  0
    5.9660   -0.3120   -2.5300 H   0  0  0  0  0  0  0  0  0  0  0  0
    5.2930    5.5220   -0.8160 H   0  0  0  0  0  0  0  0  0  0  0  0
    4.0760    5.2000    0.4550 H   0  0  0  0  0  0  0  0  0  0  0  0
   -9.0780    0.2890    2.0080 H   0  0  0  0  0  0  0  0  0  0  0  0
   -8.4420    0.5660   -2.8740 H   0  0  0  0  0  0  0  0  0  0  0  0
   -0.2580   -0.3080   -1.0900 H   0  0  0  0  0  0  0  0  0  0  0  0
    3.8070   -0.4520    0.6530 H   0  0  0  0  0  0  0  0  0  0  0  0
    6.6050    5.1550    1.2760 H   0  0  0  0  0  0  0  0  0  0  0  0
    3.4130   -1.6630   -2.2380 H   0  0  0  0  0  0  0  0  0  0  0  0
    5.8190   -1.9220   -0.7450 S   0  0  0  0  0  0  0  0  0  0  0  0
    6.9400   -1.3980   -0.0470 O   0  0  0  0  0  0  0  0  0  0  0  0
    4.7630   -2.5720   -0.0520 O   0  0  0  0  0  0  0  0  0  0  0  0
    6.4060   -3.0070   -1.6370 O   0  0  0  0  0  0  0  0  0  0  0  0
    6.8020   -3.7440   -1.1510 H   0  0  0  0  0  0  0  0  0  0  0  0
 13 15  1  0  0  0  0
  8 25  1  0  0  0  0
  8 24  2  0  0  0  0
  9 24  1  0  0  0  0
  7  8  1  0  0  0  0
  6  9  2  0  0  0  0
 13 14  1  0  0  0  0
 12 13  1  0  0  0  0
  7 23  2  0  0  0  0
  6 23  1  0  0  0  0
  6 34  1  0  0  0  0
 11 12  1  0  0  0  0
  4 34  1  0  0  0  0
 11 26  1  0  0  0  0
 10 26  1  0  0  0  0
 10 29  2  0  0  0  0
 11 16  1  0  0  0  0
 10 33  1  0  0  0  0
  2  4  1  0  0  0  0
  4  5  1  0  0  0  0
  3  4  1  0  0  0  0
  5 33  1  0  0  0  0
 16 32  2  0  0  0  0
 16 27  1  0  0  0  0
 17 27  1  0  0  0  0
 20 31  1  0  0  0  0
 17 20  1  0  0  0  0
 17 18  1  0  0  0  0
 18 19  1  0  0  0  0
  1 19  1  0  0  0  0
 19 21  1  0  0  0  0
  1 22  1  0  0  0  0
 22 28  1  0  0  0  0
 21 30  2  0  0  0  0
 21 28  1  0  0  0  0
  1 35  1  0  0  0  0
  1 36  1  0  0  0  0
  2 37  1  0  0  0  0
  2 38  1  0  0  0  0
  2 39  1  0  0  0  0
  3 40  1  0  0  0  0
  3 41  1  0  0  0  0
  3 42  1  0  0  0  0
  5 43  1  0  0  0  0
  5 44  1  0  0  0  0
  7 45  1  0  0  0  0
  9 46  1  0  0  0  0
 11 47  1  0  0  0  0
 12 48  1  0  0  0  0
 12 49  1  0  0  0  0
 13 50  1  0  0  0  0
 14 51  1  0  0  0  0
 14 52  1  0  0  0  0
 14 53  1  0  0  0  0
 15 54  1  0  0  0  0
 15 55  1  0  0  0  0
 15 56  1  0  0  0  0
 17 57  1  0  0  0  0
 18 58  1  0  0  0  0
 18 59  1  0  0  0  0
 19 60  1  0  0  0  0
 20 61  1  0  0  0  0
 22 62  1  0  0  0  0
 22 63  1  0  0  0  0
 23 64  1  0  0  0  0
 24 65  1  0  0  0  0
 26 66  1  0  0  0  0
 27 67  1  0  0  0  0
 28 68  1  0  0  0  0
 31 69  1  0  0  0  0
 20 70  1  0  0  0  0
 70 71  2  0  0  0  0
 70 72  2  0  0  0  0
 70 73  1  0  0  0  0
 73 74  1  0  0  0  0
M  END
> <OPENEYE_ISO_SMILES>
CC(C)C[C@@H](C(=O)N[C@@H](C[C@@H]1CCNC1=O)[C@H](O)S(=O)(=O)O)NC(=O)OCC(C)(C)Sc2ccc(cc2)F

> <OPENEYE_INCHI>
InChI=1S/C24H36FN3O8S2/c1-14(2)11-18(28-23(32)36-13-24(3,4)37-17-7-5-16(25)6-8-17)21(30)27-19(22(31)38(33,34)35)12-15-9-10-26-20(15)29/h5-8,14-15,18-19,22,31H,9-13H2,1-4H3,(H,26,29)(H,27,30)(H,28,32)(H,33,34,35)/t15-,18-,19-,22+/m0/s1

> <OPENEYE_INCHIKEY>
RNLOCKQDGJKCGN-SXTKRDDTSA-N

> <FORMULA>
C24H36FN3O8S2

$$$$
