@<TRIPOS>MOLECULE
/home/pku/3cl/gett_pdb/5SQW/5SQW_mol2/ligand/5SQW_QW3.pdb
 50 53 0 0 0
SMALL
GASTEIGER

@<TRIPOS>ATOM
      1  C18      -50.5440  -29.1090    5.5790 C.ar  201  QW3201      0.0019
      2  C16      -49.8970  -29.1540    4.3640 C.ar  201  QW3201      0.1307
      3  C15      -48.5080  -29.1780    4.2850 C.ar  201  QW3201      0.0781
      4  C14      -47.8320  -29.2670    2.9040 C.2   201  QW3201      0.2481
      5  C12      -45.7390  -29.7180    1.5690 C.3   201  QW3201      0.0572
      6  C11      -45.5800  -28.3810    0.8270 C.ar  201  QW3201     -0.0199
      7  C10      -46.5070  -27.6550    0.0710 C.ar  201  QW3201     -0.0563
      8  C19      -49.7590  -29.0670    6.7170 C.ar  201  QW3201      0.0383
      9  C02      -44.1760  -31.1450    2.8850 C.2   201  QW3201      0.0472
     10  C03      -44.3190  -30.1980    1.6990 C.3   201  QW3201      0.0252
     11  C04      -43.4750  -28.9420    1.8540 C.3   201  QW3201     -0.0140
     12  C05      -44.2630  -27.9140    0.9750 C.ar  201  QW3201     -0.0003
     13  C06      -43.8960  -26.7060    0.3660 C.ar  201  QW3201      0.1204
     14  C08      -44.8290  -25.9940   -0.3730 C.ar  201  QW3201     -0.0199
     15  C09      -46.1290  -26.4610   -0.5230 C.ar  201  QW3201     -0.0580
     16  C21      -51.7210  -29.0630    8.3550 C.2   201  QW3201      0.3041
     17  C23      -53.2770  -29.0950   10.3280 C.3   201  QW3201      0.0247
     18  C24      -53.7100  -30.3360   11.1110 C.3   201  QW3201     -0.0328
     19  C25      -53.2910  -29.0680   11.8530 C.3   201  QW3201     -0.0328
     20  C27      -48.3750  -29.1100    6.6700 C.ar  201  QW3201     -0.0395
     21  C28      -47.7360  -29.1690    5.4440 C.ar  201  QW3201     -0.0443
     22  N13      -46.3990  -29.5740    2.8630 N.am  201  QW3201     -0.3038
     23  N20      -50.3200  -29.0520    8.0390 N.am  201  QW3201     -0.2694
     24  N22      -51.9360  -29.1040    9.7810 N.am  201  QW3201     -0.2963
     25  O01      -43.7380  -30.7120    3.9890 O.co2 201  QW3201     -0.5495
     26  O07      -42.5950  -26.1900    0.4890 O.3   201  QW3201     -0.5065
     27  O17      -50.6880  -29.1670    3.2160 O.3   201  QW3201     -0.5059
     28  O26      -52.5970  -29.0230    7.5590 O.2   201  QW3201     -0.2525
     29  O29      -48.4610  -29.1380    1.9040 O.2   201  QW3201     -0.2701
     30  O30      -44.5030  -32.3570    2.7530 O.co2 201  QW3201     -0.5495
     31 H181      -51.6470  -29.0640    5.6190 H     201  QW3201      0.0673
     32 H121      -46.3030  -30.4380    0.9550 H     201  QW3201      0.0555
     33 H101      -47.5220  -28.0140   -0.0490 H     201  QW3201      0.0621
     34 H031      -44.0390  -30.6990    0.7800 H     201  QW3201      0.0385
     35 H042      -42.4660  -29.0890    1.4510 H     201  QW3201      0.0321
     36 H041      -43.4570  -28.6020    2.8960 H     201  QW3201      0.0321
     37 H081      -44.5340  -25.0710   -0.8430 H     201  QW3201      0.0654
     38 H091      -46.8380  -25.8920   -1.1090 H     201  QW3201      0.0619
     39 H231      -54.0730  -28.5690    9.8170 H     201  QW3201      0.0499
     40 H242      -52.9980  -31.1570   11.1380 H     201  QW3201      0.0284
     41 H241      -54.7780  -30.5410   11.1070 H     201  QW3201      0.0284
     42 H251      -52.3140  -29.1040   12.3270 H     201  QW3201      0.0284
     43 H252      -54.0930  -28.4890   12.2920 H     201  QW3201      0.0284
     44 H271      -47.7980  -29.1150    7.6020 H     201  QW3201      0.0636
     45 H281      -46.6490  -29.1890    5.3920 H     201  QW3201      0.0627
     46 H131      -45.9140  -29.7170    3.7430 H     201  QW3201      0.1496
     47 H201      -49.6880  -29.1090    8.8000 H     201  QW3201      0.1564
     48 H221      -51.1420  -29.1320   10.3890 H     201  QW3201      0.1505
     49 H071      -42.5940  -25.4640    1.0980 H     201  QW3201      0.2921
     50 H171      -50.2160  -29.5210    2.4790 H     201  QW3201      0.2922
@<TRIPOS>UNITY_ATOM_ATTR
25 1
charge -1
@<TRIPOS>BOND
     1    38    15    1
     2    37    14    1
     3    15    14   ar
     4    15     7   ar
     5    14    13   ar
     6    33     7    1
     7     7     6   ar
     8    13    26    1
     9    13    12   ar
    10    26    49    1
    11    34    10    1
    12     6    12   ar
    13     6     5    1
    14    32     5    1
    15    12    11    1
    16    35    11    1
    17     5    10    1
    18     5    22    1
    19    10    11    1
    20    10     9    1
    21    11    36    1
    22    29     4    2
    23    50    27    1
    24    30     9   ar
    25    22     4   am
    26    22    46    1
    27     9    25   ar
    28     4     3    1
    29    27     2    1
    30     3     2   ar
    31     3    21   ar
    32     2     1   ar
    33    45    21    1
    34    21    20   ar
    35     1    31    1
    36     1     8   ar
    37    20     8   ar
    38    20    44    1
    39     8    23    1
    40    28    16    2
    41    23    16   am
    42    23    47    1
    43    16    24   am
    44    24    17    1
    45    24    48    1
    46    39    17    1
    47    17    18    1
    48    17    19    1
    49    41    18    1
    50    18    40    1
    51    18    19    1
    52    19    43    1
    53    19    42    1
