NH2
  -OEChem-02242320033D

  3  2  0     0  0  0  0  0  0999 V2000
    0.0000    0.0000    0.0000 N   0  4  0  0  0  0  0  0  0  0  0  0
   -0.3850   -0.5450   -0.7710 H   0  0  0  0  0  0  0  0  0  0  0  0
    1.0200    0.0000    0.0000 H   0  0  0  0  0  0  0  0  0  0  0  0
  1  2  1  0  0  0  0
  1  3  1  0  0  0  0
M  RAD  1   1   2
M  END
> <OPENEYE_ISO_SMILES>
[NH2]

> <OPENEYE_INCHI>
InChI=1S/H2N/h1H2

> <OPENEYE_INCHIKEY>
MDFFNEOEWAXZRQ-UHFFFAOYSA-N

> <FORMULA>
H2N

$$$$
