@<TRIPOS>MOLECULE
/home/pku/3cl/gett_pdb/5RSN/5RSN_mol2/ligand/5RSN_51X.pdb
 21 22 0 0 0
SMALL
GASTEIGER

@<TRIPOS>ATOM
      1  C3       -43.2840  -32.0680    2.0780 C.2   201  51X201      0.0595
      2  C4       -43.6140  -31.3360    0.7790 C.3   201  51X201      0.0623
      3  C5       -43.5170  -32.7700   -1.2620 C.2   201  51X201      0.2541
      4  C6       -44.3610  -33.9080   -1.8730 C.ar  201  51X201      0.0494
      5  C7       -44.2780  -34.6430   -2.9370 C.ar  201  51X201     -0.0489
      6  C8       -45.2580  -35.6330   -3.2160 C.ar  201  51X201     -0.0610
      7  C9       -46.3310  -35.8210   -2.3510 C.ar  201  51X201     -0.0610
      8  C10      -46.4870  -34.9660   -1.2380 C.ar  201  51X201     -0.0489
      9  C11      -45.4980  -34.0320   -0.9840 C.ar  201  51X201      0.0494
     10  C12      -45.2570  -32.9700    0.0790 C.2   201  51X201      0.2541
     11  O        -43.2600  -33.3300    2.1280 O.co2 201  51X201     -0.5482
     12  N1       -44.1310  -32.2980   -0.1360 N.am  201  51X201     -0.2286
     13  O1       -45.9110  -32.7650    0.9630 O.2   201  51X201     -0.2695
     14  O2       -42.4920  -32.4180   -1.6660 O.2   201  51X201     -0.2695
     15  H4       -44.2790  -30.6500    0.9470 H     201  51X201      0.0531
     16  H5       -42.8100  -30.9330    0.4150 H     201  51X201      0.0531
     17  H6       -43.5260  -34.5780   -3.4800 H     201  51X201      0.0625
     18  OXT      -42.9030  -31.3780    3.0120 O.co2 201  51X201     -0.5482
     19  H7       -45.1690  -36.1730   -3.9680 H     201  51X201      0.0618
     20  H8       -47.0100  -36.4150   -2.5770 H     201  51X201      0.0618
     21  H9       -47.2200  -35.0500   -0.6720 H     201  51X201      0.0625
@<TRIPOS>UNITY_ATOM_ATTR
18 1
charge -1
@<TRIPOS>BOND
     1    19     6    1
     2    17     5    1
     3     6     5   ar
     4     6     7   ar
     5     5     4   ar
     6    20     7    1
     7     7     8   ar
     8     4     3    1
     9     4     9   ar
    10    14     3    2
    11     3    12   am
    12     8     9   ar
    13     8    21    1
    14     9    10    1
    15    12    10   am
    16    12     2    1
    17    10    13    2
    18    16     2    1
    19     2    15    1
    20     2     1    1
    21     1    11   ar
    22     1    18   ar
