ZQG
  -OEChem-02242320043D

 20 20  0     0  0  0  0  0  0999 V2000
   -3.9140    0.5290    0.4400 N   0  0  0  0  0  0  0  0  0  0  0  0
   -2.9240   -0.3290   -0.2250 C   0  0  0  0  0  0  0  0  0  0  0  0
   -1.5150    0.1580    0.1190 C   0  0  0  0  0  0  0  0  0  0  0  0
   -0.4830   -0.7350   -0.5730 C   0  0  0  0  0  0  0  0  0  0  0  0
    0.9050   -0.2560   -0.2340 C   0  0  0  0  0  0  0  0  0  0  0  0
    1.8870   -1.0070    0.3080 N   0  0  0  0  0  0  0  0  0  0  0  0
    2.9810   -0.1980    0.4550 C   0  0  0  0  0  0  0  0  0  0  0  0
    2.6310    1.0190   -0.0030 C   0  0  0  0  0  0  0  0  0  0  0  0
    1.3580    0.9540   -0.4220 N   0  0  0  0  0  0  0  0  0  0  0  0
   -4.8540    0.2280    0.2280 H   0  0  0  0  0  0  0  0  0  0  0  0
   -3.7590    0.5560    1.4360 H   0  0  0  0  0  0  0  0  0  0  0  0
   -3.0460   -1.3570    0.1170 H   0  0  0  0  0  0  0  0  0  0  0  0
   -3.0700   -0.2850   -1.3040 H   0  0  0  0  0  0  0  0  0  0  0  0
   -1.3920    1.1860   -0.2220 H   0  0  0  0  0  0  0  0  0  0  0  0
   -1.3680    0.1140    1.1980 H   0  0  0  0  0  0  0  0  0  0  0  0
   -0.6060   -1.7630   -0.2310 H   0  0  0  0  0  0  0  0  0  0  0  0
   -0.6300   -0.6910   -1.6520 H   0  0  0  0  0  0  0  0  0  0  0  0
    1.8270   -1.9450    0.5490 H   0  0  0  0  0  0  0  0  0  0  0  0
    3.9410   -0.4820    0.8600 H   0  0  0  0  0  0  0  0  0  0  0  0
    3.2640    1.8930   -0.0300 H   0  0  0  0  0  0  0  0  0  0  0  0
  8  9  1  0  0  0  0
  5  9  2  0  0  0  0
  7  8  2  0  0  0  0
  4  5  1  0  0  0  0
  5  6  1  0  0  0  0
  3  4  1  0  0  0  0
  6  7  1  0  0  0  0
  2  3  1  0  0  0  0
  1  2  1  0  0  0  0
  1 10  1  0  0  0  0
  1 11  1  0  0  0  0
  2 12  1  0  0  0  0
  2 13  1  0  0  0  0
  3 14  1  0  0  0  0
  3 15  1  0  0  0  0
  4 16  1  0  0  0  0
  4 17  1  0  0  0  0
  6 18  1  0  0  0  0
  7 19  1  0  0  0  0
  8 20  1  0  0  0  0
M  END
> <OPENEYE_ISO_SMILES>
c1cnc([nH]1)CCCN

> <OPENEYE_INCHI>
InChI=1S/C6H11N3/c7-3-1-2-6-8-4-5-9-6/h4-5H,1-3,7H2,(H,8,9)

> <OPENEYE_INCHIKEY>
HQNOODJDSFSURF-UHFFFAOYSA-N

> <FORMULA>
C6H11N3

$$$$
