@<TRIPOS>MOLECULE
/home/pku/3cl/gett_pdb/7L11/7L11_mol2/ligand/7L11_XF1.pdb
 32 35 0 0 0
SMALL
GASTEIGER

@<TRIPOS>ATOM
      1  C7       -21.7260   -4.5610  -25.7800 C.ar  400  XF1400      0.0830
      2  C8       -23.0520   -4.2750  -26.2390 C.ar  400  XF1400      0.0184
      3  C9       -24.2290   -4.3460  -25.2730 C.ar  400  XF1400      0.0111
      4  C10      -24.2080   -3.8170  -23.9640 C.ar  400  XF1400      0.0685
      5  C11      -22.9890   -3.0790  -23.4200 C.1   400  XF1400      0.1004
      6  C12      -25.3330   -3.9580  -23.1340 C.ar  400  XF1400      0.0103
      7  O1       -19.7640   -4.2420  -28.9020 O.2   400  XF1400     -0.2666
      8  C1       -20.8520   -4.2420  -28.0440 C.ar  400  XF1400      0.2647
      9  C2       -19.2820   -4.7850  -26.2110 C.ar  400  XF1400      0.0860
     10  C3       -18.3280   -3.7580  -26.2610 C.ar  400  XF1400      0.1164
     11  C4       -16.6890   -5.2460  -25.2660 C.ar  400  XF1400      0.0990
     12  C5       -17.6450   -6.2750  -25.2180 C.ar  400  XF1400      0.0222
     13  C6       -18.9490   -6.0390  -25.6820 C.ar  400  XF1400      0.0208
     14  O2       -21.3070   -4.7140  -33.3940 O.3   400  XF1400     -0.4754
     15  C13      -26.4710   -4.6340  -23.6010 C.ar  400  XF1400      0.0007
     16  C14      -26.4930   -5.1660  -24.8940 C.ar  400  XF1400      0.0000
     17  C15      -25.3740   -5.0240  -25.7210 C.ar  400  XF1400      0.0007
     18  C16      -23.2490   -4.0080  -27.6440 C.ar  400  XF1400      0.0063
     19  C17      -22.1430   -3.9770  -28.5170 C.ar  400  XF1400      0.0567
     20  C18      -22.4170   -3.6700  -29.9900 C.ar  400  XF1400      0.0085
     21  C19      -23.4000   -2.7140  -30.3170 C.ar  400  XF1400      0.0117
     22  C20      -23.6610   -2.4380  -31.6770 C.ar  400  XF1400      0.0607
     23  C21      -22.9690   -3.1150  -32.6930 C.ar  400  XF1400      0.0483
     24  C22      -21.9930   -4.0700  -32.3630 C.ar  400  XF1400      0.1394
     25  C23      -20.1910   -5.4640  -33.0270 C.3   400  XF1400      0.2054
     26  C24      -19.5510   -5.9290  -34.3300 C.3   400  XF1400      0.0473
     27  C25      -19.4580   -4.7220  -35.2590 C.3   400  XF1400      0.0040
     28  C26      -21.7150   -4.3470  -31.0130 C.ar  400  XF1400      0.0371
     29  N1       -20.6280   -4.5260  -26.7000 N.ar  400  XF1400     -0.2716
     30  N2       -17.0330   -3.9840  -25.7910 N.ar  400  XF1400     -0.2408
     31  N3       -22.0740   -2.5350  -23.0270 N.1   400  XF1400     -0.1908
     32 CL1       -24.9010   -1.2540  -32.1290 Cl    400  XF1400     -0.0821
@<TRIPOS>BOND
     1    27    26    1
     2    26    25    1
     3    14    25    1
     4    14    24    1
     5    23    24   ar
     6    23    22   ar
     7    24    28   ar
     8    32    22    1
     9    22    21   ar
    10    28    20   ar
    11    21    20   ar
    12    20    19    1
    13     7     8    2
    14    19     8   ar
    15    19    18   ar
    16     8    29   ar
    17    18     2   ar
    18    29     9    1
    19    29     1   ar
    20    10     9   ar
    21    10    30   ar
    22     2     1   ar
    23     2     3    1
    24     9    13   ar
    25    30    11   ar
    26    17     3   ar
    27    17    16   ar
    28    13    12   ar
    29     3     4   ar
    30    11    12   ar
    31    16    15   ar
    32     4     5    1
    33     4     6   ar
    34    15     6   ar
    35     5    31    3
