HQD
  -OEChem-02242320023D

 22 23  0     0  0  0  0  0  0999 V2000
   -0.3630   -1.5940   -0.0000 N   0  0  0  0  0  0  0  0  0  0  0  0
   -1.5750   -0.9820    0.0000 C   0  0  0  0  0  0  0  0  0  0  0  0
   -1.7080    0.3640    0.0000 C   0  0  0  0  0  0  0  0  0  0  0  0
   -0.5560    1.1900    0.0000 C   0  0  0  0  0  0  0  0  0  0  0  0
    1.9440    1.2720    0.0000 C   0  0  0  0  0  0  0  0  0  0  0  0
    3.1480    0.6240    0.0010 C   0  0  0  0  0  0  0  0  0  0  0  0
    3.2020   -0.7640    0.0000 C   0  0  0  0  0  0  0  0  0  0  0  0
    2.0460   -1.5130   -0.0010 C   0  0  0  0  0  0  0  0  0  0  0  0
    0.8090   -0.8740   -0.0000 C   0  0  0  0  0  0  0  0  0  0  0  0
    0.7610    0.5320   -0.0000 C   0  0  0  0  0  0  0  0  0  0  0  0
   -2.8190   -1.8330    0.0010 C   0  0  0  0  0  0  0  0  0  0  0  0
   -2.9480    0.9260   -0.0000 O   0  0  0  0  0  0  0  0  0  0  0  0
   -0.6520    2.4070   -0.0010 O   0  0  0  0  0  0  0  0  0  0  0  0
   -3.1180   -2.0390    1.0280 H   0  0  0  0  0  0  0  0  0  0  0  0
   -3.6220   -1.3040   -0.5130 H   0  0  0  0  0  0  0  0  0  0  0  0
   -2.6160   -2.7730   -0.5140 H   0  0  0  0  0  0  0  0  0  0  0  0
   -2.9420    1.8930   -0.0000 H   0  0  0  0  0  0  0  0  0  0  0  0
    1.9090    2.3510    0.0010 H   0  0  0  0  0  0  0  0  0  0  0  0
    4.0640    1.1960    0.0010 H   0  0  0  0  0  0  0  0  0  0  0  0
    4.1610   -1.2610    0.0000 H   0  0  0  0  0  0  0  0  0  0  0  0
    2.0990   -2.5920   -0.0020 H   0  0  0  0  0  0  0  0  0  0  0  0
   -0.3230   -2.5630    0.0040 H   0  0  0  0  0  0  0  0  0  0  0  0
  1  2  1  0  0  0  0
  1  9  1  0  0  0  0
  1 22  1  0  0  0  0
  2  3  2  0  0  0  0
  2 11  1  0  0  0  0
  3  4  1  0  0  0  0
  3 12  1  0  0  0  0
  4 10  1  0  0  0  0
  4 13  2  0  0  0  0
  5  6  2  0  0  0  0
  5 10  1  0  0  0  0
  6  7  1  0  0  0  0
  7  8  2  0  0  0  0
  8  9  1  0  0  0  0
  9 10  2  0  0  0  0
 11 14  1  0  0  0  0
 11 15  1  0  0  0  0
 11 16  1  0  0  0  0
 12 17  1  0  0  0  0
  5 18  1  0  0  0  0
  6 19  1  0  0  0  0
  7 20  1  0  0  0  0
  8 21  1  0  0  0  0
M  END
> <OPENEYE_ISO_SMILES>
Cc1c(c(=O)c2ccccc2[nH]1)O

> <OPENEYE_INCHI>
InChI=1S/C10H9NO2/c1-6-9(12)10(13)7-4-2-3-5-8(7)11-6/h2-5,12H,1H3,(H,11,13)

> <OPENEYE_INCHIKEY>
FSCXZVPPDJYLDD-UHFFFAOYSA-N

> <FORMULA>
C10H9NO2

$$$$
