GTA
  -OEChem-02242320023D

 81 86  0     1  0  0  0  0  0999 V2000
  -11.2420   -3.8480    1.5030 N   0  0  0  0  0  0  0  0  0  0  0  0
  -12.0670    0.6670    1.6840 O   0  0  0  0  0  0  0  0  0  0  0  0
  -11.3050   -0.2500    1.4300 C   0  0  0  0  0  0  0  0  0  0  0  0
   -9.9990    0.0040    0.9510 C   0  0  0  0  0  0  0  0  0  0  0  0
   -9.3020    1.1290    0.6620 N   0  3  0  0  0  0  0  0  0  0  0  0
   -9.8030    2.4980    0.8090 C   0  0  0  0  0  0  0  0  0  0  0  0
   -8.1160    0.8040    0.2370 C   0  0  0  0  0  0  0  0  0  0  0  0
   -7.9850   -0.5540    0.2250 N   0  0  0  0  0  0  0  0  0  0  0  0
   -9.1650   -1.0850    0.6700 C   0  0  0  0  0  0  0  0  0  0  0  0
   -9.6130   -2.3310    0.8670 N   0  0  0  0  0  0  0  0  0  0  0  0
  -10.8270   -2.5530    1.3170 C   0  0  0  0  0  0  0  0  0  0  0  0
  -11.6870   -1.5350    1.6040 N   0  0  0  0  0  0  0  0  0  0  0  0
   -4.9650   -2.8110   -2.6800 O   0  0  0  0  0  0  0  0  0  0  0  0
   -6.7980   -1.3070   -0.1870 C   0  0  1  0  0  0  0  0  0  0  0  0
   -6.8980   -1.6940   -1.6790 C   0  0  1  0  0  0  0  0  0  0  0  0
   -5.4490   -1.5550   -2.2010 C   0  0  1  0  0  0  0  0  0  0  0  0
   -4.6450   -1.1030   -0.9610 C   0  0  1  0  0  0  0  0  0  0  0  0
   -3.5630   -0.0990   -1.3610 C   0  0  0  0  0  0  0  0  0  0  0  0
   -5.6200   -0.4760   -0.0980 O   0  0  0  0  0  0  0  0  0  0  0  0
   -7.3550   -3.0410   -1.8240 O   0  0  0  0  0  0  0  0  0  0  0  0
   -1.6920    1.3240   -0.6990 P   0  0  2  0  0  0  0  0  0  0  0  0
   -0.9010    0.7280   -1.7990 O   0  0  0  0  0  0  0  0  0  0  0  0
   -2.4140    2.6640   -1.2220 O   0  0  0  0  0  0  0  0  0  0  0  0
   -0.7150    1.6850    0.5290 O   0  0  0  0  0  0  0  0  0  0  0  0
   -2.8060    0.2710   -0.2070 O   0  0  0  0  0  0  0  0  0  0  0  0
    0.5810    2.4020   -0.1020 P   0  0  2  0  0  0  0  0  0  0  0  0
    0.2420    3.9450   -0.4140 O   0  0  0  0  0  0  0  0  0  0  0  0
    0.9610    1.7170   -1.3580 O   0  0  0  0  0  0  0  0  0  0  0  0
    1.8020    2.3220    0.9440 O   0  0  0  0  0  0  0  0  0  0  0  0
    3.1410    2.6810    0.1250 P   0  0  2  0  0  0  0  0  0  0  0  0
    3.2570    4.2790   -0.0380 O   0  0  0  0  0  0  0  0  0  0  0  0
    3.0840    2.0510   -1.2130 O   0  0  0  0  0  0  0  0  0  0  0  0
    4.4240    2.1280    0.9250 O   0  0  0  0  0  0  0  0  0  0  0  0
    5.5630    2.3710    0.0970 C   0  0  0  0  0  0  0  0  0  0  0  0
    6.8230    1.8660    0.8030 C   0  0  1  0  0  0  0  0  0  0  0  0
    6.7810    0.4330    0.9130 O   0  0  0  0  0  0  0  0  0  0  0  0
    8.0690    2.2280   -0.0280 C   0  0  1  0  0  0  0  0  0  0  0  0
    8.9530    3.0640    0.7220 O   0  0  0  0  0  0  0  0  0  0  0  0
    8.7360    0.8590   -0.3220 C   0  0  1  0  0  0  0  0  0  0  0  0
   10.1570    0.9480   -0.1990 O   0  0  0  0  0  0  0  0  0  0  0  0
    8.1400   -0.0390    0.7920 C   0  0  2  0  0  0  0  0  0  0  0  0
    8.1620   -1.4480    0.3900 N   0  0  0  0  0  0  0  0  0  0  0  0
    7.1710   -2.1150   -0.2660 C   0  0  0  0  0  0  0  0  0  0  0  0
    7.5240   -3.3520   -0.4640 N   0  0  0  0  0  0  0  0  0  0  0  0
    8.7600   -3.5570    0.0520 C   0  0  0  0  0  0  0  0  0  0  0  0
    9.6270   -4.6600    0.1330 C   0  0  0  0  0  0  0  0  0  0  0  0
    9.2640   -5.8860   -0.3960 N   0  0  0  0  0  0  0  0  0  0  0  0
   10.8040   -4.4970    0.7290 N   0  0  0  0  0  0  0  0  0  0  0  0
   11.1590   -3.3310    1.2350 C   0  0  0  0  0  0  0  0  0  0  0  0
   10.3800   -2.2710    1.1820 N   0  0  0  0  0  0  0  0  0  0  0  0
    9.1860   -2.3360    0.6010 C   0  0  0  0  0  0  0  0  0  0  0  0
  -10.6420   -4.5830    1.3030 H   0  0  0  0  0  0  0  0  0  0  0  0
  -12.1360   -4.0280    1.8340 H   0  0  0  0  0  0  0  0  0  0  0  0
  -10.2800    2.8120   -0.1190 H   0  0  0  0  0  0  0  0  0  0  0  0
  -10.5300    2.5330    1.6210 H   0  0  0  0  0  0  0  0  0  0  0  0
   -8.9730    3.1670    1.0360 H   0  0  0  0  0  0  0  0  0  0  0  0
   -7.3490    1.5040   -0.0610 H   0  0  0  0  0  0  0  0  0  0  0  0
  -12.5770   -1.7330    1.9350 H   0  0  0  0  0  0  0  0  0  0  0  0
   -5.5020   -3.0410   -3.4510 H   0  0  0  0  0  0  0  0  0  0  0  0
   -6.6810   -2.1980    0.4290 H   0  0  0  0  0  0  0  0  0  0  0  0
   -7.5620   -1.0080   -2.2070 H   0  0  0  0  0  0  0  0  0  0  0  0
   -5.3950   -0.8010   -2.9860 H   0  0  0  0  0  0  0  0  0  0  0  0
   -4.1980   -1.9640   -0.4640 H   0  0  0  0  0  0  0  0  0  0  0  0
   -2.9020   -0.5520   -2.1000 H   0  0  0  0  0  0  0  0  0  0  0  0
   -4.0310    0.7890   -1.7880 H   0  0  0  0  0  0  0  0  0  0  0  0
   -7.3380   -3.2410   -2.7700 H   0  0  0  0  0  0  0  0  0  0  0  0
   -2.9170    3.0200   -0.4770 H   0  0  0  0  0  0  0  0  0  0  0  0
   -0.0010    4.3530    0.4290 H   0  0  0  0  0  0  0  0  0  0  0  0
    3.2910    4.6490    0.8550 H   0  0  0  0  0  0  0  0  0  0  0  0
    5.4420    1.8460   -0.8500 H   0  0  0  0  0  0  0  0  0  0  0  0
    5.6550    3.4410   -0.0890 H   0  0  0  0  0  0  0  0  0  0  0  0
    6.8960    2.3120    1.7950 H   0  0  0  0  0  0  0  0  0  0  0  0
    7.7790    2.7180   -0.9570 H   0  0  0  0  0  0  0  0  0  0  0  0
    9.7370    3.2050    0.1740 H   0  0  0  0  0  0  0  0  0  0  0  0
    8.4550    0.4920   -1.3100 H   0  0  0  0  0  0  0  0  0  0  0  0
   10.4650    1.5170   -0.9170 H   0  0  0  0  0  0  0  0  0  0  0  0
    8.6800    0.1010    1.7280 H   0  0  0  0  0  0  0  0  0  0  0  0
    6.2320   -1.6820   -0.5770 H   0  0  0  0  0  0  0  0  0  0  0  0
    8.4020   -5.9920   -0.8280 H   0  0  0  0  0  0  0  0  0  0  0  0
    9.8710   -6.6400   -0.3330 H   0  0  0  0  0  0  0  0  0  0  0  0
   12.1240   -3.2430    1.7110 H   0  0  0  0  0  0  0  0  0  0  0  0
  1 11  1  0  0  0  0
  1 52  1  0  0  0  0
  1 53  1  0  0  0  0
  2  3  2  0  0  0  0
  3  4  1  0  0  0  0
  3 12  1  0  0  0  0
  4  5  1  0  0  0  0
  4  9  2  0  0  0  0
  5  6  1  0  0  0  0
  5  7  2  0  0  0  0
  6 54  1  0  0  0  0
  6 55  1  0  0  0  0
  6 56  1  0  0  0  0
  7  8  1  0  0  0  0
  7 57  1  0  0  0  0
  8  9  1  0  0  0  0
  8 14  1  0  0  0  0
  9 10  1  0  0  0  0
 10 11  2  0  0  0  0
 11 12  1  0  0  0  0
 12 58  1  0  0  0  0
 13 16  1  0  0  0  0
 13 59  1  0  0  0  0
 14 15  1  0  0  0  0
 14 19  1  0  0  0  0
 14 60  1  0  0  0  0
 15 16  1  0  0  0  0
 15 20  1  0  0  0  0
 15 61  1  0  0  0  0
 16 17  1  0  0  0  0
 16 62  1  0  0  0  0
 17 18  1  0  0  0  0
 17 19  1  0  0  0  0
 17 63  1  0  0  0  0
 18 25  1  0  0  0  0
 18 64  1  0  0  0  0
 18 65  1  0  0  0  0
 20 66  1  0  0  0  0
 21 22  2  0  0  0  0
 21 23  1  0  0  0  0
 21 24  1  0  0  0  0
 21 25  1  0  0  0  0
 23 67  1  0  0  0  0
 24 26  1  0  0  0  0
 26 27  1  0  0  0  0
 26 28  2  0  0  0  0
 26 29  1  0  0  0  0
 27 68  1  0  0  0  0
 29 30  1  0  0  0  0
 30 31  1  0  0  0  0
 30 32  2  0  0  0  0
 30 33  1  0  0  0  0
 31 69  1  0  0  0  0
 33 34  1  0  0  0  0
 34 35  1  0  0  0  0
 34 70  1  0  0  0  0
 34 71  1  0  0  0  0
 35 36  1  0  0  0  0
 35 37  1  0  0  0  0
 35 72  1  0  0  0  0
 36 41  1  0  0  0  0
 37 38  1  0  0  0  0
 37 39  1  0  0  0  0
 37 73  1  0  0  0  0
 38 74  1  0  0  0  0
 39 40  1  0  0  0  0
 39 41  1  0  0  0  0
 39 75  1  0  0  0  0
 40 76  1  0  0  0  0
 41 42  1  0  0  0  0
 41 77  1  0  0  0  0
 42 43  1  0  0  0  0
 42 51  1  0  0  0  0
 43 44  2  0  0  0  0
 43 78  1  0  0  0  0
 44 45  1  0  0  0  0
 45 46  2  0  0  0  0
 45 51  1  0  0  0  0
 46 47  1  0  0  0  0
 46 48  1  0  0  0  0
 47 79  1  0  0  0  0
 47 80  1  0  0  0  0
 48 49  2  0  0  0  0
 49 50  1  0  0  0  0
 49 81  1  0  0  0  0
 50 51  2  0  0  0  0
M  CHG  1   5   1
M  END
> <OPENEYE_ISO_SMILES>
C[n+]1cn(c2c1c(=O)[nH]c(n2)N)[C@H]3[C@@H]([C@@H]([C@H](O3)CO[P@@](=O)(O)O[P@@](=O)(O)O[P@@](=O)(O)OC[C@@H]4[C@H]([C@H]([C@@H](O4)n5cnc6c5ncnc6N)O)O)O)O

> <OPENEYE_INCHI>
InChI=1S/C21H29N10O17P3/c1-29-6-31(17-10(29)18(36)28-21(23)27-17)20-14(35)12(33)8(46-20)3-44-50(39,40)48-51(41,42)47-49(37,38)43-2-7-11(32)13(34)19(45-7)30-5-26-9-15(22)24-4-25-16(9)30/h4-8,11-14,19-20,32-35H,2-3H2,1H3,(H7-,22,23,24,25,27,28,36,37,38,39,40,41,42)/p+1/t7-,8-,11-,12-,13-,14-,19-,20-/m1/s1

> <OPENEYE_INCHIKEY>
QQOHNVHGNZYSBP-XPWFQUROSA-O

> <FORMULA>
C21H30N10O17P3+

$$$$
