4BX
  -OEChem-02242320003D

 24 25  0     0  0  0  0  0  0999 V2000
    4.3290    0.2870   -0.4030 C   0  0  0  0  0  0  0  0  0  0  0  0
    4.1280   -1.0300   -0.0150 C   0  0  0  0  0  0  0  0  0  0  0  0
    2.8790   -1.4790    0.3080 C   0  0  0  0  0  0  0  0  0  0  0  0
    3.2690    1.1670   -0.4640 C   0  0  0  0  0  0  0  0  0  0  0  0
    0.7520    1.3330   -0.0890 N   0  0  0  0  0  0  0  0  0  0  0  0
    1.9930    0.7300   -0.1330 C   0  0  0  0  0  0  0  0  0  0  0  0
    1.7890   -0.6070    0.2490 C   0  0  0  0  0  0  0  0  0  0  0  0
    0.4640   -0.7450    0.5100 N   0  0  0  0  0  0  0  0  0  0  0  0
   -0.1410    0.3910    0.3180 C   0  0  0  0  0  0  0  0  0  0  0  0
   -1.6180    0.6250    0.5030 C   0  0  0  0  0  0  0  0  0  0  0  0
   -2.4040   -0.3910   -0.3290 C   0  0  0  0  0  0  0  0  0  0  0  0
   -3.8810   -0.1570   -0.1430 C   0  0  0  0  0  0  0  0  0  0  0  0
   -4.2660    0.7310    0.5800 O   0  0  0  0  0  0  0  0  0  0  0  0
   -4.7690   -0.9350   -0.7820 O   0  0  0  0  0  0  0  0  0  0  0  0
    5.3230    0.6260   -0.6560 H   0  0  0  0  0  0  0  0  0  0  0  0
    4.9680   -1.7070    0.0320 H   0  0  0  0  0  0  0  0  0  0  0  0
    2.7340   -2.5060    0.6080 H   0  0  0  0  0  0  0  0  0  0  0  0
    3.4310    2.1910   -0.7660 H   0  0  0  0  0  0  0  0  0  0  0  0
   -1.8750    0.5080    1.5560 H   0  0  0  0  0  0  0  0  0  0  0  0
   -1.8700    1.6340    0.1770 H   0  0  0  0  0  0  0  0  0  0  0  0
   -2.1470   -0.2740   -1.3820 H   0  0  0  0  0  0  0  0  0  0  0  0
   -2.1520   -1.4000   -0.0030 H   0  0  0  0  0  0  0  0  0  0  0  0
   -5.7050   -0.7470   -0.6310 H   0  0  0  0  0  0  0  0  0  0  0  0
    0.5550    2.2600   -0.2980 H   0  0  0  0  0  0  0  0  0  0  0  0
  1  4  2  0  0  0  0
  1  2  1  0  0  0  0
  1 15  1  0  0  0  0
  2  3  2  0  0  0  0
  2 16  1  0  0  0  0
  3  7  1  0  0  0  0
  3 17  1  0  0  0  0
  4  6  1  0  0  0  0
  4 18  1  0  0  0  0
  5  9  1  0  0  0  0
  5  6  1  0  0  0  0
  6  7  2  0  0  0  0
  7  8  1  0  0  0  0
  8  9  2  0  0  0  0
  9 10  1  0  0  0  0
 10 11  1  0  0  0  0
 10 19  1  0  0  0  0
 10 20  1  0  0  0  0
 11 12  1  0  0  0  0
 11 21  1  0  0  0  0
 11 22  1  0  0  0  0
 12 13  2  0  0  0  0
 12 14  1  0  0  0  0
 14 23  1  0  0  0  0
  5 24  1  0  0  0  0
M  END
> <OPENEYE_ISO_SMILES>
c1ccc2c(c1)[nH]c(n2)CCC(=O)O

> <OPENEYE_INCHI>
InChI=1S/C10H10N2O2/c13-10(14)6-5-9-11-7-3-1-2-4-8(7)12-9/h1-4H,5-6H2,(H,11,12)(H,13,14)

> <OPENEYE_INCHIKEY>
XYWJNTOURDMTPI-UHFFFAOYSA-N

> <FORMULA>
C10H10N2O2

$$$$
