@<TRIPOS>MOLECULE
/home/pku/3cl/gett_pdb/5RU7/5RU7_mol2/ligand/5RU7_PYD.pdb
 36 28 0 0 0
SMALL
GASTEIGER

@<TRIPOS>ATOM
      1  N1'      -45.4800  -29.1260    4.5840 N.2   201  PYD201      0.1935
      2  N1'      -51.1580  -29.3970    4.5190 N.2   201  PYD201      0.1907
      3  C2'      -45.1740  -29.0940    5.8660 C.2   201  PYD201      0.3914
      4  C2'      -51.5260  -29.4140    5.7730 C.2   201  PYD201      0.3775
      5  CM2      -43.7290  -29.1740    6.3230 C.3   201  PYD201      0.0498
      6  CM2      -53.0130  -29.6690    5.9950 C.3   201  PYD201      0.0474
      7  N3'      -46.0820  -28.9860    6.7950 N.2   201  PYD201     -0.0274
      8  N3'      -50.6710  -29.2300    6.7790 N.pl3 201  PYD201     -0.0276
      9  C4'      -47.3400  -28.8810    6.4700 C.2   201  PYD201      0.2860
     10  C4'      -49.3870  -29.0200    6.4780 C.3   201  PYD201      0.3059
     11  N4'      -48.3400  -28.7470    7.4880 N.3   201  PYD201     -0.1629
     12  N4'      -48.3400  -28.7940    7.4620 N.3   201  PYD201     -0.2731
     13  C5'      -47.7190  -28.9030    5.1390 C.3   201  PYD201     -0.0309
     14  C5'      -48.9820  -28.9730    5.1600 C.3   201  PYD201     -0.0309
     15  C6'      -46.7440  -29.0330    4.1790 C.3   201  PYD201     -0.0531
     16  C6'      -49.9020  -29.1850    4.1640 C.3   201  PYD201     -0.0531
     17  C7'      -49.2220  -28.7960    4.8420 C.3   201  PYD201     -0.0309
     18  C7'      -47.4930  -28.7640    4.8330 C.3   201  PYD201     -0.0309
     19 HM21      -43.6180  -29.9360    6.9130 H     201  PYD201      0.0356
     20 HM21      -53.4380  -28.8540    6.3040 H     201  PYD201      0.0354
     21 HM22      -43.4940  -28.3610    6.7970 H     201  PYD201      0.0356
     22 HM22      -53.1240  -30.3630    6.6640 H     201  PYD201      0.0354
     23 HM23      -43.1510  -29.2760    5.5510 H     201  PYD201      0.0356
     24 HM23      -53.4230  -29.9530    5.1640 H     201  PYD201      0.0354
     25 HN41      -48.2980  -28.0970    8.0500 H     201  PYD201      0.0000
     26 HN41      -48.3830  -28.1140    7.9870 H     201  PYD201      0.1629
     27 HN42      -48.9830  -29.3160    7.5370 H     201  PYD201      0.1366
     28 HN42      -47.6780  -29.3400    7.5190 H     201  PYD201      0.1366
     29 HC6'      -46.9610  -29.0560    3.2750 H     201  PYD201      0.0265
     30 HC6'      -49.6030  -29.1380    3.3130 H     201  PYD201      0.0265
     31 HC71      -49.3630  -28.8000    3.8830 H     201  PYD201      0.0265
     32 HC71      -47.3670  -28.7860    3.8710 H     201  PYD201      0.0265
     33 HC72      -49.6850  -29.5500    5.2400 H     201  PYD201      0.0309
     34 HC72      -47.2040  -27.9050    5.1780 H     201  PYD201      0.0309
     35 HC73      -49.5680  -27.9700    5.2160 H     201  PYD201      0.0309
     36 HC73      -46.9690  -29.4700    5.2440 H     201  PYD201      0.0309
@<TRIPOS>BOND
     1    29    15    1
     2    30    16    1
     3    32    15    1
     4    31    16    1
     5     2     4    2
     6     1     3    2
     7    18    13    1
     8    18    34    1
     9    17    14    1
    10    17    35    1
    11    13    14    1
    12    13    36    1
    13    14    33    1
    14    24     6    1
    15    23     5    1
    16     4     6    1
    17     4     8    1
    18     3     5    1
    19     3     7    1
    20     6    20    1
    21     6    22    1
    22     5    21    1
    23     5    19    1
    24     9     7    2
    25    10     8    1
    26    12    28    1
    27    12    27    1
    28    11    26    1
