LUY
  -OEChem-02242320033D

 33 35  0     0  0  0  0  0  0999 V2000
   -1.6160    0.5470   -0.0020 N   0  0  0  0  0  0  0  0  0  0  0  0
    4.1310   -0.0470    1.1970 C   0  0  0  0  0  0  0  0  0  0  0  0
    5.2510    0.7650    1.1950 C   0  0  0  0  0  0  0  0  0  0  0  0
    2.3570   -1.3480    0.0040 C   0  0  0  0  0  0  0  0  0  0  0  0
    1.0940   -0.4850    0.0020 C   0  0  0  0  0  0  0  0  0  0  0  0
   -1.3500   -0.7930    0.0020 C   0  0  0  0  0  0  0  0  0  0  0  0
   -3.8450    1.7860   -0.0000 C   0  0  0  0  0  0  0  0  0  0  0  0
   -4.9090   -0.7880   -0.0040 C   0  0  0  0  0  0  0  0  0  0  0  0
   -0.0890   -1.3500    0.0040 N   0  0  0  0  0  0  0  0  0  0  0  0
    5.8120    1.1650   -0.0040 C   0  0  0  0  0  0  0  0  0  0  0  0
    5.2540    0.7530   -1.1990 C   0  0  0  0  0  0  0  0  0  0  0  0
   -5.2120    1.5920   -0.0010 C   0  0  0  0  0  0  0  0  0  0  0  0
   -5.7400    0.3100   -0.0020 C   0  0  0  0  0  0  0  0  0  0  0  0
   -3.5230   -0.6100   -0.0030 C   0  0  0  0  0  0  0  0  0  0  0  0
    4.1350   -0.0590   -1.1970 C   0  0  0  0  0  0  0  0  0  0  0  0
    3.5740   -0.4580    0.0020 C   0  0  0  0  0  0  0  0  0  0  0  0
   -2.9940    0.6920   -0.0010 C   0  0  0  0  0  0  0  0  0  0  0  0
   -2.4710   -1.4700    0.0050 N   0  0  0  0  0  0  0  0  0  0  0  0
   -0.9620    1.2630   -0.0010 H   0  0  0  0  0  0  0  0  0  0  0  0
    3.6960   -0.3630    2.1340 H   0  0  0  0  0  0  0  0  0  0  0  0
    5.6870    1.0860    2.1290 H   0  0  0  0  0  0  0  0  0  0  0  0
    2.3670   -1.9750    0.8960 H   0  0  0  0  0  0  0  0  0  0  0  0
    2.3670   -1.9800   -0.8840 H   0  0  0  0  0  0  0  0  0  0  0  0
    1.0840    0.1470    0.8900 H   0  0  0  0  0  0  0  0  0  0  0  0
    1.0840    0.1420   -0.8900 H   0  0  0  0  0  0  0  0  0  0  0  0
   -3.4400    2.7870    0.0010 H   0  0  0  0  0  0  0  0  0  0  0  0
   -5.3270   -1.7840   -0.0050 H   0  0  0  0  0  0  0  0  0  0  0  0
    0.0160   -2.3140    0.0070 H   0  0  0  0  0  0  0  0  0  0  0  0
    6.6860    1.7990   -0.0060 H   0  0  0  0  0  0  0  0  0  0  0  0
    5.6920    1.0660   -2.1360 H   0  0  0  0  0  0  0  0  0  0  0  0
   -5.8740    2.4450    0.0010 H   0  0  0  0  0  0  0  0  0  0  0  0
   -6.8110    0.1720   -0.0030 H   0  0  0  0  0  0  0  0  0  0  0  0
    3.6990   -0.3800   -2.1310 H   0  0  0  0  0  0  0  0  0  0  0  0
  3 10  2  0  0  0  0
 10 11  1  0  0  0  0
  2  3  1  0  0  0  0
 11 15  2  0  0  0  0
  2 16  2  0  0  0  0
 15 16  1  0  0  0  0
  4 16  1  0  0  0  0
  4  5  1  0  0  0  0
  5  9  1  0  0  0  0
 14 18  1  0  0  0  0
  6 18  2  0  0  0  0
  6  9  1  0  0  0  0
  8 14  2  0  0  0  0
  8 13  1  0  0  0  0
 14 17  1  0  0  0  0
  1  6  1  0  0  0  0
 12 13  2  0  0  0  0
  1 17  1  0  0  0  0
  7 17  2  0  0  0  0
  7 12  1  0  0  0  0
  1 19  1  0  0  0  0
  2 20  1  0  0  0  0
  3 21  1  0  0  0  0
  4 22  1  0  0  0  0
  4 23  1  0  0  0  0
  5 24  1  0  0  0  0
  5 25  1  0  0  0  0
  7 26  1  0  0  0  0
  8 27  1  0  0  0  0
  9 28  1  0  0  0  0
 10 29  1  0  0  0  0
 11 30  1  0  0  0  0
 12 31  1  0  0  0  0
 13 32  1  0  0  0  0
 15 33  1  0  0  0  0
M  END
> <OPENEYE_ISO_SMILES>
c1ccc(cc1)CCNc2[nH]c3ccccc3n2

> <OPENEYE_INCHI>
InChI=1S/C15H15N3/c1-2-6-12(7-3-1)10-11-16-15-17-13-8-4-5-9-14(13)18-15/h1-9H,10-11H2,(H2,16,17,18)

> <OPENEYE_INCHIKEY>
OWETVOGOOABRTJ-UHFFFAOYSA-N

> <FORMULA>
C15H15N3

$$$$
