T2J
  -OEChem-02242320043D

 33 34  0     0  0  0  0  0  0999 V2000
   -0.0640   -0.0090   -0.0070 N   0  0  0  0  0  0  0  0  0  0  0  0
   -1.4370    1.9740    0.0600 C   0  0  0  0  0  0  0  0  0  0  0  0
   -1.3250    0.5910    0.0110 C   0  0  0  0  0  0  0  0  0  0  0  0
    0.6630    0.2550    1.2420 C   0  0  0  0  0  0  0  0  0  0  0  0
    1.9580   -0.5630    1.2590 C   0  0  0  0  0  0  0  0  0  0  0  0
    2.0080   -0.3840   -1.2590 C   0  0  0  0  0  0  0  0  0  0  0  0
    4.0090    0.0830    0.0800 C   0  0  0  0  0  0  0  0  0  0  0  0
   -2.3550   -1.6700   -0.0730 N   0  3  0  0  0  0  0  0  0  0  0  0
   -2.4700   -0.1950   -0.0210 C   0  0  0  0  0  0  0  0  0  0  0  0
   -3.3560   -2.3610   -0.0040 O   0  5  0  0  0  0  0  0  0  0  0  0
   -3.7150    0.4010   -0.0040 C   0  0  0  0  0  0  0  0  0  0  0  0
    4.7280    0.4910   -1.1800 C   0  0  0  0  0  0  0  0  0  0  0  0
   -3.8230    1.7790    0.0450 C   0  0  0  0  0  0  0  0  0  0  0  0
   -2.6860    2.5640    0.0770 C   0  0  0  0  0  0  0  0  0  0  0  0
    0.7110    0.4280   -1.1770 C   0  0  0  0  0  0  0  0  0  0  0  0
    2.7100   -0.2740    0.0290 N   0  0  0  0  0  0  0  0  0  0  0  0
   -1.2610   -2.1920   -0.1840 O   0  0  0  0  0  0  0  0  0  0  0  0
    4.5980    0.0760    1.1390 O   0  0  0  0  0  0  0  0  0  0  0  0
   -0.5490    2.5880    0.0890 H   0  0  0  0  0  0  0  0  0  0  0  0
    0.9030    1.3170    1.3050 H   0  0  0  0  0  0  0  0  0  0  0  0
    0.0420   -0.0280    2.0910 H   0  0  0  0  0  0  0  0  0  0  0  0
    2.5560   -0.2860    2.1270 H   0  0  0  0  0  0  0  0  0  0  0  0
    1.7190   -1.6260    1.3040 H   0  0  0  0  0  0  0  0  0  0  0  0
    1.7730   -1.4300   -1.4590 H   0  0  0  0  0  0  0  0  0  0  0  0
    2.6360    0.0100   -2.0570 H   0  0  0  0  0  0  0  0  0  0  0  0
   -4.6060   -0.2090   -0.0290 H   0  0  0  0  0  0  0  0  0  0  0  0
    4.0190    0.5300   -2.0070 H   0  0  0  0  0  0  0  0  0  0  0  0
    5.1770    1.4740   -1.0400 H   0  0  0  0  0  0  0  0  0  0  0  0
    5.5080   -0.2360   -1.4050 H   0  0  0  0  0  0  0  0  0  0  0  0
   -4.7990    2.2430    0.0580 H   0  0  0  0  0  0  0  0  0  0  0  0
   -2.7740    3.6400    0.1200 H   0  0  0  0  0  0  0  0  0  0  0  0
    0.1240    0.2680   -2.0810 H   0  0  0  0  0  0  0  0  0  0  0  0
    0.9500    1.4870   -1.0800 H   0  0  0  0  0  0  0  0  0  0  0  0
  8 10  1  0  0  0  0
  8 17  2  0  0  0  0
  8  9  1  0  0  0  0
  9 11  2  0  0  0  0
 11 13  1  0  0  0  0
 13 14  2  0  0  0  0
  2 14  1  0  0  0  0
  2  3  2  0  0  0  0
  3  9  1  0  0  0  0
  1  3  1  0  0  0  0
  1  4  1  0  0  0  0
  4  5  1  0  0  0  0
  5 16  1  0  0  0  0
  6 16  1  0  0  0  0
  6 15  1  0  0  0  0
  1 15  1  0  0  0  0
  7 16  1  0  0  0  0
  7 18  2  0  0  0  0
  7 12  1  0  0  0  0
  2 19  1  0  0  0  0
  4 20  1  0  0  0  0
  4 21  1  0  0  0  0
  5 22  1  0  0  0  0
  5 23  1  0  0  0  0
  6 24  1  0  0  0  0
  6 25  1  0  0  0  0
 11 26  1  0  0  0  0
 12 27  1  0  0  0  0
 12 28  1  0  0  0  0
 12 29  1  0  0  0  0
 13 30  1  0  0  0  0
 14 31  1  0  0  0  0
 15 32  1  0  0  0  0
 15 33  1  0  0  0  0
M  CHG  2   8   1  10  -1
M  END
> <OPENEYE_ISO_SMILES>
CC(=O)N1CCN(CC1)c2ccccc2[N+](=O)[O-]

> <OPENEYE_INCHI>
InChI=1S/C12H15N3O3/c1-10(16)13-6-8-14(9-7-13)11-4-2-3-5-12(11)15(17)18/h2-5H,6-9H2,1H3

> <OPENEYE_INCHIKEY>
LEDSXFUCNNKEDB-UHFFFAOYSA-N

> <FORMULA>
C12H15N3O3

$$$$
