WXT
  -OEChem-02242320043D

 47 49  0     1  0  0  0  0  0999 V2000
    5.2450    1.4500   -0.2780 C   0  0  0  0  0  0  0  0  0  0  0  0
    3.1880   -0.0520   -0.3490 C   0  0  0  0  0  0  0  0  0  0  0  0
    3.7720    1.2560    0.1200 C   0  0  0  0  0  0  0  0  0  0  0  0
    1.3370   -1.6260   -0.5270 C   0  0  0  0  0  0  0  0  0  0  0  0
   -3.5280   -0.3770    1.8080 C   0  0  0  0  0  0  0  0  0  0  0  0
   -3.8640    1.3790    0.3640 C   0  0  0  0  0  0  0  0  0  0  0  0
    4.2520    1.2270    1.5810 C   0  0  0  0  0  0  0  0  0  0  0  0
    5.6120    0.7520    1.0420 C   0  0  0  0  0  0  0  0  0  0  0  0
   -2.2140   -3.0830   -0.2200 C   0  0  0  0  0  0  0  0  0  0  0  0
   -0.7530   -2.9880   -0.6640 C   0  0  0  0  0  0  0  0  0  0  0  0
   -0.1240   -1.7200   -0.0830 C   0  0  2  0  0  0  0  0  0  0  0  0
   -1.9980   -0.1250    0.0980 C   0  0  0  0  0  0  0  0  0  0  0  0
   -2.7140    0.9990   -0.3490 C   0  0  0  0  0  0  0  0  0  0  0  0
   -3.5330    2.7500   -1.3310 C   0  0  0  0  0  0  0  0  0  0  0  0
    2.8840    2.4570   -0.2120 C   0  0  0  0  0  0  0  0  0  0  0  0
    0.0130   -4.2140   -0.1620 C   0  0  0  0  0  0  0  0  0  0  0  0
   -0.8580   -0.5470   -0.5630 N   0  0  0  0  0  0  0  0  0  0  0  0
   -2.5690    1.8770   -1.3700 N   0  0  0  0  0  0  0  0  0  0  0  0
   -4.3580    2.4860   -0.2790 N   0  0  0  0  0  0  0  0  0  0  0  0
   -4.2300    0.6690    1.4260 N   0  0  0  0  0  0  0  0  0  0  0  0
   -2.4410   -0.7720    1.1710 N   0  0  0  0  0  0  0  0  0  0  0  0
    1.9050   -0.3550   -0.0710 N   0  0  0  0  0  0  0  0  0  0  0  0
    3.8730   -0.8310   -0.9770 O   0  0  0  0  0  0  0  0  0  0  0  0
    5.5360    0.8880   -1.1650 H   0  0  0  0  0  0  0  0  0  0  0  0
    5.5520    2.4950   -0.3180 H   0  0  0  0  0  0  0  0  0  0  0  0
    1.9020   -2.4520   -0.0960 H   0  0  0  0  0  0  0  0  0  0  0  0
    1.3900   -1.6780   -1.6150 H   0  0  0  0  0  0  0  0  0  0  0  0
   -3.8500   -0.9290    2.6780 H   0  0  0  0  0  0  0  0  0  0  0  0
    4.2870    2.2110    2.0480 H   0  0  0  0  0  0  0  0  0  0  0  0
    3.7400    0.4860    2.1940 H   0  0  0  0  0  0  0  0  0  0  0  0
    5.6920   -0.3320    0.9550 H   0  0  0  0  0  0  0  0  0  0  0  0
    6.4640    1.2010    1.5520 H   0  0  0  0  0  0  0  0  0  0  0  0
   -2.2610   -3.1200    0.8690 H   0  0  0  0  0  0  0  0  0  0  0  0
   -2.7600   -2.2100   -0.5770 H   0  0  0  0  0  0  0  0  0  0  0  0
   -2.6620   -3.9860   -0.6340 H   0  0  0  0  0  0  0  0  0  0  0  0
   -0.7060   -2.9510   -1.7520 H   0  0  0  0  0  0  0  0  0  0  0  0
   -0.1710   -1.7580    1.0060 H   0  0  0  0  0  0  0  0  0  0  0  0
   -3.6600    3.5650   -2.0290 H   0  0  0  0  0  0  0  0  0  0  0  0
    2.9090    2.6410   -1.2860 H   0  0  0  0  0  0  0  0  0  0  0  0
    1.8600    2.2470    0.0970 H   0  0  0  0  0  0  0  0  0  0  0  0
    3.2500    3.3360    0.3170 H   0  0  0  0  0  0  0  0  0  0  0  0
   -0.4350   -5.1170   -0.5760 H   0  0  0  0  0  0  0  0  0  0  0  0
    1.0540   -4.1470   -0.4790 H   0  0  0  0  0  0  0  0  0  0  0  0
   -0.0340   -4.2510    0.9260 H   0  0  0  0  0  0  0  0  0  0  0  0
   -0.5440   -0.0650   -1.3450 H   0  0  0  0  0  0  0  0  0  0  0  0
   -5.1500    2.9890   -0.0300 H   0  0  0  0  0  0  0  0  0  0  0  0
    1.3570    0.2690    0.4310 H   0  0  0  0  0  0  0  0  0  0  0  0
  5 20  2  0  0  0  0
  5 21  1  0  0  0  0
  6 20  1  0  0  0  0
 12 21  2  0  0  0  0
  6 19  1  0  0  0  0
  6 13  2  0  0  0  0
 14 19  1  0  0  0  0
 12 13  1  0  0  0  0
 12 17  1  0  0  0  0
  9 10  1  0  0  0  0
 13 18  1  0  0  0  0
 14 18  2  0  0  0  0
 11 17  1  0  0  0  0
 10 11  1  0  0  0  0
  4 11  1  0  0  0  0
 10 16  1  0  0  0  0
  1  3  1  0  0  0  0
  1  8  1  0  0  0  0
  3 15  1  0  0  0  0
  4 22  1  0  0  0  0
  2 22  1  0  0  0  0
  2  3  1  0  0  0  0
  3  7  1  0  0  0  0
  7  8  1  0  0  0  0
  2 23  2  0  0  0  0
  1 24  1  0  0  0  0
  1 25  1  0  0  0  0
  4 26  1  0  0  0  0
  4 27  1  0  0  0  0
  5 28  1  0  0  0  0
  7 29  1  0  0  0  0
  7 30  1  0  0  0  0
  8 31  1  0  0  0  0
  8 32  1  0  0  0  0
  9 33  1  0  0  0  0
  9 34  1  0  0  0  0
  9 35  1  0  0  0  0
 10 36  1  0  0  0  0
 11 37  1  0  0  0  0
 14 38  1  0  0  0  0
 15 39  1  0  0  0  0
 15 40  1  0  0  0  0
 15 41  1  0  0  0  0
 16 42  1  0  0  0  0
 16 43  1  0  0  0  0
 16 44  1  0  0  0  0
 17 45  1  0  0  0  0
 19 46  1  0  0  0  0
 22 47  1  0  0  0  0
M  END
> <OPENEYE_ISO_SMILES>
CC(C)[C@@H](CNC(=O)C1(CCC1)C)Nc2c3c([nH]cn3)ncn2

> <OPENEYE_INCHI>
InChI=1S/C16H24N6O/c1-10(2)11(7-17-15(23)16(3)5-4-6-16)22-14-12-13(19-8-18-12)20-9-21-14/h8-11H,4-7H2,1-3H3,(H,17,23)(H2,18,19,20,21,22)/t11-/m1/s1

> <OPENEYE_INCHIKEY>
RZITUVZKCFWKQP-LLVKDONJSA-N

> <FORMULA>
C16H24N6O

$$$$
