@<TRIPOS>MOLECULE
/home/pku/3cl/gett_pdb/7N4I/7N4I_mol2/ligand/7N4I_NAG.pdb
 28 28 0 0 0
SMALL
GASTEIGER

@<TRIPOS>ATOM
      1  C1        19.9250   -7.7480   -6.8800 C.3     1  NAG1        0.1078
      2  C2        19.3770   -9.0670   -7.2230 C.3     1  NAG1        0.0801
      3  C3        20.3560  -10.1130   -6.9180 C.3     1  NAG1        0.1043
      4  C4        21.7150   -9.8170   -7.5790 C.3     1  NAG1        0.1110
      5  C5        22.0670   -8.4730   -6.9620 C.3     1  NAG1        0.1104
      6  C6        23.4750   -8.0220   -7.4150 C.3     1  NAG1        0.0729
      7  C7        17.0120   -9.3190   -7.5120 C.2     1  NAG1        0.2103
      8  C8        15.7420   -9.8560   -6.9440 C.3     1  NAG1        0.0122
      9  N2        18.0590   -9.3080   -6.7020 N.am    1  NAG1       -0.3075
     10  O3        19.7970  -11.3610   -7.4410 O.3     1  NAG1       -0.3872
     11  O4        22.7140  -10.6890   -7.1940 O.3     1  NAG1       -0.3865
     12  O5        21.1860   -7.4900   -7.3640 O.3     1  NAG1       -0.3639
     13  O6        23.4200   -7.6300   -8.7770 O.3     1  NAG1       -0.3924
     14  O7        17.1000   -8.9180   -8.6690 O.2     1  NAG1       -0.2761
     15  H1        19.9240   -7.6400   -5.9100 H       1  NAG1        0.0642
     16  H2        19.2860   -9.0720   -8.1950 H       1  NAG1        0.0551
     17  H3        20.4700  -10.1840   -5.9510 H       1  NAG1        0.0639
     18  H4        21.6390   -9.7560   -8.5500 H       1  NAG1        0.0646
     19  H5        22.0480   -8.5480   -5.9890 H       1  NAG1        0.0646
     20  H61       24.1030   -8.7620   -7.3140 H       1  NAG1        0.0584
     21  H62       23.7680   -7.2680   -6.8700 H       1  NAG1        0.0584
     22  H81       15.8750  -10.7820   -6.6670 H       1  NAG1        0.0322
     23  H82       15.4780   -9.3190   -6.1730 H       1  NAG1        0.0322
     24  H83       15.0410   -9.8170   -7.6230 H       1  NAG1        0.0322
     25  HN2       17.9820   -9.7110   -5.8880 H       1  NAG1        0.1491
     26  HO3       20.0210  -12.0330   -6.9050 H       1  NAG1        0.2100
     27  HO4       23.0250  -10.4510   -6.3970 H       1  NAG1        0.2100
     28  HO6       24.0180   -6.9910   -8.9250 H       1  NAG1        0.2095
@<TRIPOS>BOND
     1    28    13    1
     2    13     6    1
     3    14     7    2
     4    18     4    1
     5    16     2    1
     6    24     8    1
     7     4    11    1
     8     4     5    1
     9     4     3    1
    10     7     8    1
    11     7     9   am
    12    10     3    1
    13    10    26    1
    14     6    20    1
    15     6     5    1
    16     6    21    1
    17    12     5    1
    18    12     1    1
    19     2     3    1
    20     2     1    1
    21     2     9    1
    22    11    27    1
    23     5    19    1
    24     8    22    1
    25     8    23    1
    26     3    17    1
    27     1    15    1
    28     9    25    1
