@<TRIPOS>MOLECULE
/home/pku/3cl/gett_pdb/5RUO/5RUO_mol2/ligand/5RUO_W6A.pdb
 18 19 0 0 0
SMALL
GASTEIGER

@<TRIPOS>ATOM
      1  C10      -44.7420  -25.6120   -0.5510 C.ar  201  W6A201     -0.0584
      2  C02      -42.4670  -30.0780    2.7460 C.2   201  W6A201      0.1352
      3  C04      -43.2480  -29.0960    1.9030 C.ar  201  W6A201      0.0729
      4  C05      -44.5770  -29.1860    1.5080 C.ar  201  W6A201     -0.0253
      5  C06      -44.8160  -28.0390    0.7530 C.ar  201  W6A201      0.0186
      6  C07      -45.9200  -27.5450    0.0900 C.ar  201  W6A201      0.0501
      7  C09      -45.8780  -26.3510   -0.5810 C.ar  201  W6A201     -0.0427
      8  C11      -43.5990  -26.0970    0.0710 C.ar  201  W6A201     -0.0377
      9  C12      -43.6530  -27.3320    0.7420 C.ar  201  W6A201      0.0484
     10  N13      -42.7210  -28.0080    1.4560 N.ar  201  W6A201     -0.3525
     11  O01      -41.2430  -29.9770    2.7440 O.co2 201  W6A201     -0.8431
     12  O03      -43.0570  -30.9170    3.4380 O.co2 201  W6A201     -0.3021
     13 CL08      -47.4050  -28.4900    0.0590 Cl    201  W6A201     -0.0829
     14 H101      -44.7020  -24.8130   -1.0260 H     201  W6A201      0.0619
     15 H051      -45.1660  -29.8880    1.6680 H     201  W6A201      0.0646
     16 H091      -46.6320  -26.0350   -1.0240 H     201  W6A201      0.0632
     17 H111      -42.8190  -25.5910    0.0810 H     201  W6A201      0.0638
     18 H131      -41.9190  -27.7400    1.6120 H     201  W6A201      0.1660
@<TRIPOS>UNITY_ATOM_ATTR
11 1
charge -1
@<TRIPOS>BOND
     1    14     1    1
     2    16     7    1
     3     7     1   ar
     4     7     6   ar
     5     1     8   ar
     6    13     6    1
     7     8    17    1
     8     8     9   ar
     9     6     5   ar
    10     9     5   ar
    11     9    10   ar
    12     5     4   ar
    13    10    18    1
    14    10     3   ar
    15     4    15    1
    16     4     3   ar
    17     3     2    1
    18    11     2   ar
    19     2    12   ar
