SZY
  -OEChem-02242320043D

 21 21  0     0  0  0  0  0  0999 V2000
   -1.2260   -0.9940    0.0400 C   0  0  0  0  0  0  0  0  0  0  0  0
    3.5680   -0.4050   -0.0360 C   0  0  0  0  0  0  0  0  0  0  0  0
    2.1700    0.1490    0.0520 C   0  0  0  0  0  0  0  0  0  0  0  0
   -0.1800   -0.1110   -0.2160 C   0  0  0  0  0  0  0  0  0  0  0  0
   -0.4530    1.2480   -0.3040 C   0  0  0  0  0  0  0  0  0  0  0  0
   -2.6930    0.8890    0.0950 C   0  0  0  0  0  0  0  0  0  0  0  0
   -2.5010   -0.4770    0.1970 C   0  0  0  0  0  0  0  0  0  0  0  0
   -0.9780   -2.4770    0.1380 C   0  0  0  0  0  0  0  0  0  0  0  0
    1.1260   -0.5860   -0.3810 N   0  0  0  0  0  0  0  0  0  0  0  0
   -1.6810    1.6990   -0.1480 N   0  0  0  0  0  0  0  0  0  0  0  0
    1.9830    1.2560    0.5120 O   0  0  0  0  0  0  0  0  0  0  0  0
    3.5370   -1.4030   -0.4730 H   0  0  0  0  0  0  0  0  0  0  0  0
    4.1790    0.2470   -0.6620 H   0  0  0  0  0  0  0  0  0  0  0  0
    4.0010   -0.4590    0.9630 H   0  0  0  0  0  0  0  0  0  0  0  0
    0.3510    1.9420   -0.5010 H   0  0  0  0  0  0  0  0  0  0  0  0
   -3.6850    1.2980    0.2160 H   0  0  0  0  0  0  0  0  0  0  0  0
   -3.3360   -1.1320    0.3960 H   0  0  0  0  0  0  0  0  0  0  0  0
   -1.0800   -2.9290   -0.8490 H   0  0  0  0  0  0  0  0  0  0  0  0
    0.0300   -2.6530    0.5150 H   0  0  0  0  0  0  0  0  0  0  0  0
   -1.7030   -2.9230    0.8180 H   0  0  0  0  0  0  0  0  0  0  0  0
    1.2800   -1.4430   -0.8080 H   0  0  0  0  0  0  0  0  0  0  0  0
  2  3  1  0  0  0  0
  3 11  2  0  0  0  0
  3  9  1  0  0  0  0
  4  9  1  0  0  0  0
  4  5  2  0  0  0  0
  5 10  1  0  0  0  0
  6 10  2  0  0  0  0
  6  7  1  0  0  0  0
  1  7  2  0  0  0  0
  1  8  1  0  0  0  0
  1  4  1  0  0  0  0
  2 12  1  0  0  0  0
  2 13  1  0  0  0  0
  2 14  1  0  0  0  0
  5 15  1  0  0  0  0
  6 16  1  0  0  0  0
  7 17  1  0  0  0  0
  8 18  1  0  0  0  0
  8 19  1  0  0  0  0
  8 20  1  0  0  0  0
  9 21  1  0  0  0  0
M  END
> <OPENEYE_ISO_SMILES>
Cc1ccncc1NC(=O)C

> <OPENEYE_INCHI>
InChI=1S/C8H10N2O/c1-6-3-4-9-5-8(6)10-7(2)11/h3-5H,1-2H3,(H,10,11)

> <OPENEYE_INCHIKEY>
WRPYDRDMRXJIJA-UHFFFAOYSA-N

> <FORMULA>
C8H10N2O

$$$$
