S7F
  -OEChem-02242320043D

 38 39  0     1  0  0  0  0  0999 V2000
   -1.7090   -0.5510    0.0320 C   0  0  0  0  0  0  0  0  0  0  0  0
   -3.9870   -1.5340    0.0680 C   0  0  0  0  0  0  0  0  0  0  0  0
   -3.2100   -0.2450    0.0040 C   0  0  1  0  0  0  0  0  0  0  0  0
   -3.5710    0.6300    1.2070 C   0  0  0  0  0  0  0  0  0  0  0  0
   -2.8060    1.9530    1.1250 C   0  0  0  0  0  0  0  0  0  0  0  0
   -1.3010    1.6720    1.1660 C   0  0  0  0  0  0  0  0  0  0  0  0
    2.1430   -0.8470   -0.6270 C   0  0  0  0  0  0  0  0  0  0  0  0
    3.8290   -2.6880   -0.3670 C   0  0  0  0  0  0  0  0  0  0  0  0
    3.3410   -1.2890   -0.0940 C   0  0  0  0  0  0  0  0  0  0  0  0
    4.0900   -0.4230    0.6970 C   0  0  0  0  0  0  0  0  0  0  0  0
    2.5260    1.2550    0.4430 C   0  0  0  0  0  0  0  0  0  0  0  0
    1.7330    0.4500   -0.3500 C   0  0  0  0  0  0  0  0  0  0  0  0
    5.2950   -0.8530    1.2380 N   0  0  0  0  0  0  0  0  0  0  0  0
    3.6640    0.8080    0.9380 N   0  0  0  0  0  0  0  0  0  0  0  0
   -0.9690    0.7160    0.1000 N   0  0  3  0  0  0  0  0  0  0  0  0
   -5.3350   -1.5100    0.0560 N   0  0  0  0  0  0  0  0  0  0  0  0
    0.3340    2.4780   -1.0360 O   0  0  0  0  0  0  0  0  0  0  0  0
   -3.4010   -2.5940    0.1300 O   0  0  0  0  0  0  0  0  0  0  0  0
   -0.0690    0.2800   -2.1570 O   0  0  0  0  0  0  0  0  0  0  0  0
    0.2160    1.0620   -1.0040 S   0  0  0  0  0  0  0  0  0  0  0  0
   -1.4760   -1.1580    0.9070 H   0  0  0  0  0  0  0  0  0  0  0  0
   -1.4300   -1.0920   -0.8730 H   0  0  0  0  0  0  0  0  0  0  0  0
   -3.4560    0.2830   -0.9170 H   0  0  0  0  0  0  0  0  0  0  0  0
   -4.6420    0.8280    1.2030 H   0  0  0  0  0  0  0  0  0  0  0  0
   -3.3010    0.1110    2.1260 H   0  0  0  0  0  0  0  0  0  0  0  0
   -3.0560    2.4610    0.1930 H   0  0  0  0  0  0  0  0  0  0  0  0
   -3.0820    2.5850    1.9690 H   0  0  0  0  0  0  0  0  0  0  0  0
   -0.7510    2.6000    1.0080 H   0  0  0  0  0  0  0  0  0  0  0  0
   -1.0340    1.2490    2.1340 H   0  0  0  0  0  0  0  0  0  0  0  0
    1.5430   -1.4960   -1.2480 H   0  0  0  0  0  0  0  0  0  0  0  0
    4.4420   -2.6900   -1.2680 H   0  0  0  0  0  0  0  0  0  0  0  0
    4.4240   -3.0370    0.4770 H   0  0  0  0  0  0  0  0  0  0  0  0
    2.9740   -3.3500   -0.5070 H   0  0  0  0  0  0  0  0  0  0  0  0
    2.2100    2.2650    0.6610 H   0  0  0  0  0  0  0  0  0  0  0  0
    5.6110   -1.7540    1.0640 H   0  0  0  0  0  0  0  0  0  0  0  0
    5.8210   -0.2530    1.7900 H   0  0  0  0  0  0  0  0  0  0  0  0
   -5.8350   -2.3400    0.0980 H   0  0  0  0  0  0  0  0  0  0  0  0
   -5.8040   -0.6620    0.0070 H   0  0  0  0  0  0  0  0  0  0  0  0
 17 20  2  0  0  0  0
 19 20  2  0  0  0  0
 12 20  1  0  0  0  0
 15 20  1  0  0  0  0
  7 12  2  0  0  0  0
  7  9  1  0  0  0  0
 11 12  1  0  0  0  0
  8  9  1  0  0  0  0
  9 10  2  0  0  0  0
 11 14  2  0  0  0  0
  6 15  1  0  0  0  0
  1 15  1  0  0  0  0
 10 14  1  0  0  0  0
 10 13  1  0  0  0  0
  5  6  1  0  0  0  0
  1  3  1  0  0  0  0
  4  5  1  0  0  0  0
  3  4  1  0  0  0  0
  2  3  1  0  0  0  0
  2 16  1  0  0  0  0
  2 18  2  0  0  0  0
  1 21  1  0  0  0  0
  1 22  1  0  0  0  0
  3 23  1  0  0  0  0
  4 24  1  0  0  0  0
  4 25  1  0  0  0  0
  5 26  1  0  0  0  0
  5 27  1  0  0  0  0
  6 28  1  0  0  0  0
  6 29  1  0  0  0  0
  7 30  1  0  0  0  0
  8 31  1  0  0  0  0
  8 32  1  0  0  0  0
  8 33  1  0  0  0  0
 11 34  1  0  0  0  0
 13 35  1  0  0  0  0
 13 36  1  0  0  0  0
 16 37  1  0  0  0  0
 16 38  1  0  0  0  0
M  END
> <OPENEYE_ISO_SMILES>
Cc1cc(cnc1N)S(=O)(=O)N2CCC[C@@H](C2)C(=O)N

> <OPENEYE_INCHI>
InChI=1S/C12H18N4O3S/c1-8-5-10(6-15-11(8)13)20(18,19)16-4-2-3-9(7-16)12(14)17/h5-6,9H,2-4,7H2,1H3,(H2,13,15)(H2,14,17)/t9-/m0/s1

> <OPENEYE_INCHIKEY>
YMLLLXRQGHPOSV-VIFPVBQESA-N

> <FORMULA>
C12H18N4O3S

$$$$
