@<TRIPOS>MOLECULE
/home/pku/3cl/gett_pdb/5RUW/5RUW_mol2/ligand/5RUW_W6M.pdb
 29 30 0 0 0
SMALL
GASTEIGER

@<TRIPOS>ATOM
      1  C10      -49.5240  -29.3710    5.7410 C.ar  201  W6M201      0.0373
      2  C13      -46.7880  -29.0500    5.4920 C.ar  201  W6M201     -0.0521
      3  C15      -46.9960  -29.1000    2.9600 C.2   201  W6M201      0.1186
      4  C01      -54.0000  -26.1380   10.0270 C.3   201  W6M201     -0.0012
      5  C02      -54.1460  -27.1860    8.9220 C.ar  201  W6M201      0.1688
      6  C05      -53.7190  -28.9270    7.7450 C.ar  201  W6M201      0.2445
      7  C06      -53.0360  -30.1880    7.2630 C.3   201  W6M201      0.0910
      8  C08      -51.0380  -29.5620    5.8740 C.2   201  W6M201      0.2445
      9  C11      -48.7410  -29.2720    6.8780 C.ar  201  W6M201     -0.0496
     10  C12      -47.3670  -29.1090    6.7490 C.ar  201  W6M201     -0.0604
     11  C14      -47.5880  -29.1430    4.3690 C.ar  201  W6M201      0.0079
     12  C18      -48.9430  -29.3170    4.4980 C.ar  201  W6M201     -0.0400
     13  N03      -55.0800  -27.2430    7.9690 N.ar  201  W6M201     -0.0615
     14  N07      -51.5990  -29.9780    7.1380 N.am  201  W6M201     -0.3025
     15  N19      -53.3220  -28.2080    8.7690 N.ar  201  W6M201     -0.1951
     16  O04      -54.8210  -28.3640    7.2320 O.2   201  W6M201     -0.3364
     17  O09      -51.7380  -29.3840    4.9490 O.2   201  W6M201     -0.2702
     18  O16      -45.7740  -29.2660    2.7950 O.co2 201  W6M201     -0.3036
     19  O17      -47.7610  -28.9210    1.9680 O.co2 201  W6M201     -0.8441
     20 H131      -45.8700  -28.9380    5.4050 H     201  W6M201      0.0624
     21 H011      -54.4140  -25.3400    9.7580 H     201  W6M201      0.0309
     22 H012      -53.0890  -25.9790   10.1890 H     201  W6M201      0.0309
     23 H013      -54.4070  -26.4530   10.8130 H     201  W6M201      0.0309
     24 H061      -53.1970  -30.8820    7.8750 H     201  W6M201      0.0560
     25 H062      -53.3890  -30.4240    6.4270 H     201  W6M201      0.0560
     26 H111      -49.1310  -29.3120    7.7200 H     201  W6M201      0.0625
     27 H121      -46.8360  -29.0370    7.5080 H     201  W6M201      0.0618
     28 H181      -49.4740  -29.3850    3.7410 H     201  W6M201      0.0632
     29 H071      -51.0790  -30.1210    7.8180 H     201  W6M201      0.1495
@<TRIPOS>UNITY_ATOM_ATTR
19 1
charge -1
@<TRIPOS>BOND
     1    19     3   ar
     2    18     3   ar
     3     3    11    1
     4    28    12    1
     5    11    12   ar
     6    11     2   ar
     7    12     1   ar
     8    17     8    2
     9    20     2    1
    10     2    10   ar
    11     1     8    1
    12     1     9   ar
    13     8    14   am
    14    25     7    1
    15    10     9   ar
    16    10    27    1
    17     9    26    1
    18    14     7    1
    19    14    29    1
    20    16     6   ar
    21    16    13   ar
    22     7     6    1
    23     7    24    1
    24     6    15   ar
    25    13     5   ar
    26    15     5   ar
    27     5     4    1
    28    21     4    1
    29     4    22    1
    30     4    23    1
