WKS
  -OEChem-02242320043D

 30 31  0     0  0  0  0  0  0999 V2000
   -1.7740   -1.1310    0.3190 C   0  0  0  0  0  0  0  0  0  0  0  0
   -3.8590   -0.0600   -0.3860 N   0  0  0  0  0  0  0  0  0  0  0  0
   -3.2200    1.2610   -0.3050 C   0  0  0  0  0  0  0  0  0  0  0  0
    3.3160    2.2740    0.1270 C   0  0  0  0  0  0  0  0  0  0  0  0
    2.4040    1.0750    0.0930 C   0  0  0  0  0  0  0  0  0  0  0  0
    1.0420    1.2280    0.2690 C   0  0  0  0  0  0  0  0  0  0  0  0
    0.2360    0.0890    0.2280 C   0  0  0  0  0  0  0  0  0  0  0  0
    2.1100   -1.1950   -0.1410 C   0  0  0  0  0  0  0  0  0  0  0  0
    2.7180   -2.5550   -0.3710 C   0  0  0  0  0  0  0  0  0  0  0  0
   -3.2730   -0.9870    0.5920 C   0  0  0  0  0  0  0  0  0  0  0  0
   -1.7210    1.1170   -0.5780 C   0  0  0  0  0  0  0  0  0  0  0  0
    0.8060   -1.0950    0.0230 N   0  0  0  0  0  0  0  0  0  0  0  0
    2.8970   -0.1380   -0.1130 N   0  0  0  0  0  0  0  0  0  0  0  0
   -1.1350    0.1900    0.4000 N   0  0  0  0  0  0  0  0  0  0  0  0
   -1.3320   -1.7960    1.0610 H   0  0  0  0  0  0  0  0  0  0  0  0
   -1.6240   -1.5470   -0.6780 H   0  0  0  0  0  0  0  0  0  0  0  0
   -3.7980   -0.4340   -1.3210 H   0  0  0  0  0  0  0  0  0  0  0  0
   -3.6620    1.9260   -1.0470 H   0  0  0  0  0  0  0  0  0  0  0  0
   -3.3700    1.6770    0.6910 H   0  0  0  0  0  0  0  0  0  0  0  0
    3.6550    2.4440    1.1490 H   0  0  0  0  0  0  0  0  0  0  0  0
    4.1780    2.0920   -0.5150 H   0  0  0  0  0  0  0  0  0  0  0  0
    2.7770    3.1520   -0.2280 H   0  0  0  0  0  0  0  0  0  0  0  0
    0.6120    2.2050    0.4340 H   0  0  0  0  0  0  0  0  0  0  0  0
    2.7460   -2.7630   -1.4400 H   0  0  0  0  0  0  0  0  0  0  0  0
    3.7310   -2.5720    0.0300 H   0  0  0  0  0  0  0  0  0  0  0  0
    2.1150   -3.3120    0.1310 H   0  0  0  0  0  0  0  0  0  0  0  0
   -3.7540   -1.9610    0.5030 H   0  0  0  0  0  0  0  0  0  0  0  0
   -3.4230   -0.5960    1.5980 H   0  0  0  0  0  0  0  0  0  0  0  0
   -1.5710    0.7260   -1.5850 H   0  0  0  0  0  0  0  0  0  0  0  0
   -1.2400    2.0910   -0.4900 H   0  0  0  0  0  0  0  0  0  0  0  0
  8  9  1  0  0  0  0
  8 12  2  0  0  0  0
  8 13  1  0  0  0  0
  7 12  1  0  0  0  0
  5 13  2  0  0  0  0
  1 10  1  0  0  0  0
  1 14  1  0  0  0  0
  7 14  1  0  0  0  0
  6  7  2  0  0  0  0
  2 10  1  0  0  0  0
 11 14  1  0  0  0  0
  5  6  1  0  0  0  0
  4  5  1  0  0  0  0
  2  3  1  0  0  0  0
  3 11  1  0  0  0  0
  1 15  1  0  0  0  0
  1 16  1  0  0  0  0
  2 17  1  0  0  0  0
  3 18  1  0  0  0  0
  3 19  1  0  0  0  0
  4 20  1  0  0  0  0
  4 21  1  0  0  0  0
  4 22  1  0  0  0  0
  6 23  1  0  0  0  0
  9 24  1  0  0  0  0
  9 25  1  0  0  0  0
  9 26  1  0  0  0  0
 10 27  1  0  0  0  0
 10 28  1  0  0  0  0
 11 29  1  0  0  0  0
 11 30  1  0  0  0  0
M  END
> <OPENEYE_ISO_SMILES>
Cc1cc(nc(n1)C)N2CCNCC2

> <OPENEYE_INCHI>
InChI=1S/C10H16N4/c1-8-7-10(13-9(2)12-8)14-5-3-11-4-6-14/h7,11H,3-6H2,1-2H3

> <OPENEYE_INCHIKEY>
NARMKNJWXHFJFF-UHFFFAOYSA-N

> <FORMULA>
C10H16N4

$$$$
