@<TRIPOS>MOLECULE
/home/pku/3cl/gett_pdb/5SQX/5SQX_mol2/ligand/5SQX_QWX.pdb
 51 54 0 0 0
SMALL
GASTEIGER

@<TRIPOS>ATOM
      1  C18      -45.5180  -28.5810    1.0440 C.ar  201  QWX201     -0.0199
      2  C16      -46.0590  -26.5240   -0.0910 C.ar  201  QWX201     -0.0580
      3  C17      -46.4420  -27.7530    0.4140 C.ar  201  QWX201     -0.0563
      4  C15      -44.7420  -26.0970    0.0190 C.ar  201  QWX201     -0.0199
      5  C13      -43.8050  -26.9160    0.6470 C.ar  201  QWX201      0.1204
      6  C12      -44.1940  -28.1640    1.1650 C.ar  201  QWX201     -0.0003
      7  C11      -43.3900  -29.2650    1.9050 C.3   201  QWX201     -0.0140
      8  C20      -47.8970  -29.5090    5.3120 C.ar  201  QWX201     -0.0461
      9  C02      -50.0230  -29.0090    4.2480 C.ar  201  QWX201      0.0386
     10  C03      -48.6530  -29.2960    4.1730 C.ar  201  QWX201      0.0574
     11  C04      -47.8830  -29.3790    2.8430 C.2   201  QWX201      0.2463
     12  C06      -45.7170  -29.9790    1.6540 C.3   201  QWX201      0.0572
     13  C07      -44.2930  -30.4910    1.7640 C.3   201  QWX201      0.0252
     14  C08      -44.1620  -31.4280    2.9610 C.2   201  QWX201      0.0472
     15  C21      -48.4900  -29.4510    6.5490 C.ar  201  QWX201     -0.0396
     16  C22      -49.8400  -29.1680    6.6390 C.ar  201  QWX201      0.0365
     17  C24      -51.7330  -29.1300    8.3720 C.2   201  QWX201      0.3041
     18  C26      -53.2720  -29.1310   10.3540 C.3   201  QWX201      0.0247
     19  C27      -53.6530  -30.2800   11.2860 C.3   201  QWX201     -0.0328
     20  C28      -53.3010  -28.9100   11.8610 C.3   201  QWX201     -0.0328
     21  C30      -50.6270  -28.9550    5.5070 C.ar  201  QWX201     -0.0190
     22  N01      -50.8220  -28.7690    3.0340 N.pl3 201  QWX201     -0.3573
     23  N05      -46.4920  -29.8820    2.8820 N.am  201  QWX201     -0.3038
     24  N23      -50.3400  -29.1620    7.9980 N.am  201  QWX201     -0.2694
     25  N25      -51.9290  -29.1720    9.8090 N.am  201  QWX201     -0.2963
     26  O09      -44.2060  -30.9560    4.1320 O.co2 201  QWX201     -0.5495
     27  O10      -44.0240  -32.6700    2.7840 O.co2 201  QWX201     -0.5495
     28  O14      -42.4680  -26.4890    0.7590 O.3   201  QWX201     -0.5065
     29  O19      -48.4150  -29.0400    1.8410 O.2   201  QWX201     -0.2701
     30  O29      -52.6280  -29.0660    7.5950 O.2   201  QWX201     -0.2525
     31 H161      -46.7940  -25.8980   -0.5700 H     201  QWX201      0.0619
     32 H171      -47.4740  -28.0740    0.3390 H     201  QWX201      0.0621
     33 H151      -44.4560  -25.1310   -0.3940 H     201  QWX201      0.0654
     34 H112      -42.4350  -29.4320    1.3950 H     201  QWX201      0.0321
     35 H111      -43.2500  -28.9970    2.9660 H     201  QWX201      0.0321
     36 H201      -46.8380  -29.7330    5.2340 H     201  QWX201      0.0626
     37 H061      -46.2610  -30.6250    0.9500 H     201  QWX201      0.0555
     38 H071      -44.0360  -30.9910    0.8180 H     201  QWX201      0.0385
     39 H211      -47.8930  -29.6140    7.4490 H     201  QWX201      0.0636
     40 H261      -54.0860  -28.7000    9.7770 H     201  QWX201      0.0499
     41 H272      -52.8970  -31.0490   11.4160 H     201  QWX201      0.0284
     42 H271      -54.7080  -30.5330   11.3000 H     201  QWX201      0.0284
     43 H282      -52.3260  -28.8400   12.3350 H     201  QWX201      0.0284
     44 H281      -54.1330  -28.3230   12.2210 H     201  QWX201      0.0284
     45 H301      -51.6980  -28.7440    5.6070 H     201  QWX201      0.0655
     46 H011      -50.5670  -29.1860    2.1550 H     201  QWX201      0.1423
     47 H012      -51.6460  -28.1800    3.0760 H     201  QWX201      0.1423
     48 H051      -46.1090  -30.1790    3.7650 H     201  QWX201      0.1496
     49 H231      -49.6770  -29.2260    8.7420 H     201  QWX201      0.1564
     50 H251      -51.1230  -29.2290   10.4170 H     201  QWX201      0.1505
     51 H141      -42.4250  -25.7770    1.3740 H     201  QWX201      0.2921
@<TRIPOS>UNITY_ATOM_ATTR
26 1
charge -1
@<TRIPOS>BOND
     1    31     2    1
     2    33     4    1
     3     2     4   ar
     4     2     3   ar
     5     4     5   ar
     6    32     3    1
     7     3     1   ar
     8     5    28    1
     9     5     6   ar
    10    28    51    1
    11    38    13    1
    12    37    12    1
    13     1     6   ar
    14     1    12    1
    15     6     7    1
    16    34     7    1
    17    12    13    1
    18    12    23    1
    19    13     7    1
    20    13    14    1
    21    29    11    2
    22     7    35    1
    23    46    22    1
    24    27    14   ar
    25    11    23   am
    26    11    10    1
    27    23    48    1
    28    14    26   ar
    29    22    47    1
    30    22     9    1
    31    10     9   ar
    32    10     8   ar
    33     9    21   ar
    34    36     8    1
    35     8    15   ar
    36    21    45    1
    37    21    16   ar
    38    15    16   ar
    39    15    39    1
    40    16    24    1
    41    30    17    2
    42    24    17   am
    43    24    49    1
    44    17    25   am
    45    40    18    1
    46    25    18    1
    47    25    50    1
    48    18    19    1
    49    18    20    1
    50    19    42    1
    51    19    41    1
    52    19    20    1
    53    20    44    1
    54    20    43    1
