@<TRIPOS>MOLECULE
/home/pku/3cl/gett_pdb/8DZ9/8DZ9_mol2/ligand/8DZ9_4WI.pdb
 68 70 0 0 0
SMALL
GASTEIGER

@<TRIPOS>ATOM
      1  C8       -32.9450  -24.8770  -55.2020 C.2   401  4WI401      0.2162
      2  C3       -37.2380  -26.4060  -53.1650 C.3   401  4WI401      0.0973
      3  C1       -37.5030  -23.3370  -54.4410 C.2   401  4WI401      0.2341
      4  C13      -36.1280  -20.8590  -55.6060 C.2   401  4WI401      0.2371
      5  C21      -35.6850  -17.6510  -56.3960 C.2   401  4WI401      0.3179
      6  C6       -34.4840  -25.0420  -56.9750 C.3   401  4WI401     -0.0262
      7  C7       -33.1930  -25.6320  -57.3770 C.3   401  4WI401      0.0123
      8  C10      -38.5940  -20.4020  -55.3480 C.3   401  4WI401      0.0192
      9  C5       -34.4210  -24.8830  -55.4670 C.3   401  4WI401      0.0387
     10  C9       -37.4480  -21.9330  -53.8460 C.3   401  4WI401      0.1058
     11  C11      -39.5170  -20.7160  -54.1740 C.3   401  4WI401     -0.0142
     12  C12      -38.7670  -21.5710  -53.1770 C.3   401  4WI401     -0.0037
     13  C18      -39.1950  -20.1600  -52.8040 C.3   401  4WI401     -0.0250
     14  C19      -40.4700  -19.8720  -52.0550 C.3   401  4WI401     -0.0592
     15  C20      -38.1530  -19.0720  -52.6070 C.3   401  4WI401     -0.0592
     16  C16      -34.3250  -21.2770  -58.1950 C.3   401  4WI401     -0.0579
     17  C17      -36.7640  -21.8360  -58.4560 C.3   401  4WI401     -0.0579
     18  C23      -35.8560  -19.7010  -59.3530 C.3   401  4WI401     -0.0579
     19  C4       -35.1220  -25.8540  -54.5130 C.3   401  4WI401     -0.0214
     20  C2       -36.6160  -25.6060  -54.2800 C.3   401  4WI401      0.0471
     21  C14      -36.0940  -19.9970  -56.8690 C.3   401  4WI401      0.1047
     22  C22      -34.6830  -16.5400  -56.0690 C.3   401  4WI401      0.4694
     23  C15      -35.7570  -20.7090  -58.2020 C.3   401  4WI401     -0.0108
     24  N5       -38.4800  -27.0560  -53.5220 N.3   401  4WI401     -0.2441
     25  N2       -32.3150  -25.2980  -56.2660 N.am  401  4WI401     -0.3151
     26  N3       -37.3060  -20.9940  -54.9620 N.am  401  4WI401     -0.2878
     27  N1       -36.8510  -24.2750  -53.7700 N.am  401  4WI401     -0.3090
     28  N4       -35.2040  -18.8740  -56.6240 N.am  401  4WI401     -0.2962
     29  O1       -32.4320  -24.5990  -54.1520 O.2   401  4WI401     -0.2755
     30  O2       -38.1120  -23.5490  -55.4890 O.2   401  4WI401     -0.2738
     31  O3       -35.1190  -21.4420  -55.2240 O.2   401  4WI401     -0.2735
     32  O4       -36.8680  -17.3750  -56.4070 O.2   401  4WI401     -0.2660
     33  F1       -34.0500  -16.7820  -54.9360 F     401  4WI401     -0.1620
     34  F2       -33.7390  -16.3950  -57.0080 F     401  4WI401     -0.1620
     35  F3       -35.3040  -15.3740  -55.9180 F     401  4WI401     -0.1620
     36  H5       -35.2190  -25.6320  -57.2290 H     401  4WI401      0.0288
     37  H6       -34.6150  -24.1760  -57.4090 H     401  4WI401      0.0288
     38  H7       -32.8690  -25.2390  -58.2180 H     401  4WI401      0.0462
     39  H8       -33.2670  -26.6050  -57.4890 H     401  4WI401      0.0462
     40  H11      -38.5060  -19.4370  -55.4690 H     401  4WI401      0.0468
     41  H12      -38.9300  -20.8010  -56.1780 H     401  4WI401      0.0468
     42  H4       -34.7480  -23.9710  -55.2640 H     401  4WI401      0.0395
     43  H10      -36.6930  -21.8500  -53.2210 H     401  4WI401      0.0600
     44  H13      -40.4850  -20.9480  -54.3660 H     401  4WI401      0.0325
     45  H14      -39.2870  -22.3210  -52.7340 H     401  4WI401      0.0332
     46  H23      -40.9360  -20.7030  -51.8750 H     401  4WI401      0.0235
     47  H24      -41.0380  -19.2950  -52.5890 H     401  4WI401      0.0235
     48  H25      -40.2650  -19.4320  -51.2150 H     401  4WI401      0.0235
     49  H26      -37.2690  -19.4330  -52.7610 H     401  4WI401      0.0235
     50  H27      -38.2050  -18.7300  -51.7010 H     401  4WI401      0.0235
     51  H28      -38.3170  -18.3480  -53.2320 H     401  4WI401      0.0235
     52  H17      -33.9010  -21.0860  -57.3430 H     401  4WI401      0.0236
     53  H19      -34.3520  -22.2380  -58.3300 H     401  4WI401      0.0236
     54  H18      -33.8040  -20.8700  -58.9080 H     401  4WI401      0.0236
     55  H20      -37.4140  -21.8640  -57.7330 H     401  4WI401      0.0236
     56  H21      -36.3000  -22.6890  -58.5030 H     401  4WI401      0.0236
     57  H22      -37.2290  -21.6800  -59.2960 H     401  4WI401      0.0236
     58  H29      -36.1100  -18.8300  -59.0040 H     401  4WI401      0.0236
     59  H30      -36.5260  -19.9960  -59.9930 H     401  4WI401      0.0236
     60  H31      -34.9970  -19.6260  -59.8020 H     401  4WI401      0.0236
     61  H2       -35.0070  -26.7640  -54.8540 H     401  4WI401      0.0291
     62  H3       -34.6700  -25.8100  -53.6400 H     401  4WI401      0.0291
     63  H32      -37.1460  -25.7840  -55.1380 H     401  4WI401      0.0518
     64  H15      -36.9970  -19.6210  -56.9990 H     401  4WI401      0.0600
     65  H36      -38.7590  -27.6760  -53.0920 H     401  4WI401      0.1414
     66  H9       -31.4500  -25.3830  -56.2940 H     401  4WI401      0.1487
     67  H1       -36.5720  -24.0940  -52.9630 H     401  4WI401      0.1491
     68  H16      -34.3380  -18.9870  -56.6180 H     401  4WI401      0.1497
@<TRIPOS>BOND
     1    59    18    1
     2    60    18    1
     3    18    58    1
     4    18    23    1
     5    57    17    1
     6    54    16    1
     7    56    17    1
     8    17    23    1
     9    17    55    1
    10    53    16    1
    11    38     7    1
    12    23    16    1
    13    23    21    1
    14    16    52    1
    15    39     7    1
    16    37     6    1
    17     7     6    1
    18     7    25    1
    19    36     6    1
    20    34    22    1
    21    64    21    1
    22     6     9    1
    23    21    28    1
    24    21     4    1
    25    28    68    1
    26    28     5   am
    27    32     5    2
    28     5    22    1
    29    66    25    1
    30    25     1   am
    31    41     8    1
    32    22    35    1
    33    22    33    1
    34     4    31    2
    35     4    26   am
    36    30     3    2
    37    40     8    1
    38     9    42    1
    39     9     1    1
    40     9    19    1
    41     8    26    1
    42     8    11    1
    43     1    29    2
    44    63    20    1
    45    26    10    1
    46    61    19    1
    47    19    20    1
    48    19    62    1
    49     3    10    1
    50     3    27   am
    51    44    11    1
    52    20    27    1
    53    20     2    1
    54    11    12    1
    55    11    13    1
    56    10    43    1
    57    10    12    1
    58    27    67    1
    59    24     2    1
    60    24    65    1
    61    51    15    1
    62    12    13    1
    63    12    45    1
    64    13    15    1
    65    13    14    1
    66    49    15    1
    67    15    50    1
    68    47    14    1
    69    14    46    1
    70    14    48    1
