RNL
  -OEChem-02242320043D

 37 39  0     1  0  0  0  0  0999 V2000
    5.0320    0.9330   -0.2600 N   0  0  0  0  0  0  0  0  0  0  0  0
   -6.3130   -1.7300   -0.2210 O   0  0  0  0  0  0  0  0  0  0  0  0
    4.8100   -0.3920   -0.4040 C   0  0  0  0  0  0  0  0  0  0  0  0
   -2.8550    0.9390   -1.2930 O   0  0  0  0  0  0  0  0  0  0  0  0
    3.5000   -0.9280   -0.0120 C   0  0  0  0  0  0  0  0  0  0  0  0
   -5.3150   -0.8320   -0.2110 C   0  0  0  0  0  0  0  0  0  0  0  0
    5.6740   -1.1240   -0.8500 O   0  0  0  0  0  0  0  0  0  0  0  0
   -5.5270    0.5230    0.4140 C   0  0  2  0  0  0  0  0  0  0  0  0
   -5.4640    1.7430   -0.5080 C   0  0  0  0  0  0  0  0  0  0  0  0
   -4.3250    1.4680    0.4760 C   0  0  2  0  0  0  0  0  0  0  0  0
   -3.0200    0.9720   -0.0920 C   0  0  0  0  0  0  0  0  0  0  0  0
   -0.7680    0.0820    0.1820 C   0  0  0  0  0  0  0  0  0  0  0  0
    0.1680   -0.3150    1.3260 C   0  0  0  0  0  0  0  0  0  0  0  0
    1.4730   -0.8110    0.7570 C   0  0  0  0  0  0  0  0  0  0  0  0
    2.8540    1.2830    0.6010 C   0  0  0  0  0  0  0  0  0  0  0  0
    4.0430    1.7550    0.2470 C   0  0  0  0  0  0  0  0  0  0  0  0
    6.3300    1.5000   -0.6360 C   0  0  0  0  0  0  0  0  0  0  0  0
   -4.2470   -1.1100   -0.7030 O   0  0  0  0  0  0  0  0  0  0  0  0
    2.5560   -0.0620    0.4850 N   0  0  0  0  0  0  0  0  0  0  0  0
   -2.0360    0.5640    0.7340 N   0  0  0  0  0  0  0  0  0  0  0  0
    1.7580   -2.0520    0.4390 N   0  0  0  0  0  0  0  0  0  0  0  0
    2.9600   -2.1260   -0.0180 N   0  0  0  0  0  0  0  0  0  0  0  0
   -6.1300   -2.5850   -0.6320 H   0  0  0  0  0  0  0  0  0  0  0  0
   -6.2340    0.5540    1.2420 H   0  0  0  0  0  0  0  0  0  0  0  0
   -5.2710    1.5660   -1.5660 H   0  0  0  0  0  0  0  0  0  0  0  0
   -6.1310    2.5760   -0.2850 H   0  0  0  0  0  0  0  0  0  0  0  0
   -4.2410    2.1200    1.3450 H   0  0  0  0  0  0  0  0  0  0  0  0
   -0.3050    0.8730   -0.4080 H   0  0  0  0  0  0  0  0  0  0  0  0
   -0.9540   -0.7840   -0.4530 H   0  0  0  0  0  0  0  0  0  0  0  0
    0.3540    0.5510    1.9610 H   0  0  0  0  0  0  0  0  0  0  0  0
   -0.2950   -1.1060    1.9160 H   0  0  0  0  0  0  0  0  0  0  0  0
    2.1090    1.9600    0.9930 H   0  0  0  0  0  0  0  0  0  0  0  0
    4.2440    2.8100    0.3580 H   0  0  0  0  0  0  0  0  0  0  0  0
    6.3260    2.5740   -0.4460 H   0  0  0  0  0  0  0  0  0  0  0  0
    7.1160    1.0300   -0.0460 H   0  0  0  0  0  0  0  0  0  0  0  0
    6.5120    1.3190   -1.6950 H   0  0  0  0  0  0  0  0  0  0  0  0
   -2.1680    0.5900    1.6950 H   0  0  0  0  0  0  0  0  0  0  0  0
  9 10  1  0  0  0  0
  8 10  1  0  0  0  0
 10 11  1  0  0  0  0
  8  9  1  0  0  0  0
  6  8  1  0  0  0  0
 11 20  1  0  0  0  0
  4 11  2  0  0  0  0
 12 20  1  0  0  0  0
 12 13  1  0  0  0  0
  6 18  2  0  0  0  0
  2  6  1  0  0  0  0
 21 22  1  0  0  0  0
 14 21  2  0  0  0  0
 13 14  1  0  0  0  0
  5 22  2  0  0  0  0
 14 19  1  0  0  0  0
  5 19  1  0  0  0  0
  3  5  1  0  0  0  0
 15 19  1  0  0  0  0
  3  7  2  0  0  0  0
  1  3  1  0  0  0  0
 15 16  2  0  0  0  0
  1 16  1  0  0  0  0
  1 17  1  0  0  0  0
  2 23  1  0  0  0  0
  8 24  1  0  0  0  0
  9 25  1  0  0  0  0
  9 26  1  0  0  0  0
 10 27  1  0  0  0  0
 12 28  1  0  0  0  0
 12 29  1  0  0  0  0
 13 30  1  0  0  0  0
 13 31  1  0  0  0  0
 15 32  1  0  0  0  0
 16 33  1  0  0  0  0
 17 34  1  0  0  0  0
 17 35  1  0  0  0  0
 17 36  1  0  0  0  0
 20 37  1  0  0  0  0
M  END
> <OPENEYE_ISO_SMILES>
Cn1ccn2c(nnc2c1=O)CCNC(=O)[C@H]3C[C@H]3C(=O)O

> <OPENEYE_INCHI>
InChI=1S/C13H15N5O4/c1-17-4-5-18-9(15-16-10(18)12(17)20)2-3-14-11(19)7-6-8(7)13(21)22/h4-5,7-8H,2-3,6H2,1H3,(H,14,19)(H,21,22)/t7-,8+/m0/s1

> <OPENEYE_INCHIKEY>
ZHMWBBORZYXPPK-JGVFFNPUSA-N

> <FORMULA>
C13H15N5O4

$$$$
