@<TRIPOS>MOLECULE
/home/pku/3cl/gett_pdb/5RUR/5RUR_mol2/ligand/5RUR_FBB.pdb
 16 17 0 0 0
SMALL
GASTEIGER

@<TRIPOS>ATOM
      1  F10      -46.0380  -29.1950    2.7910 F     201  FBB201     -0.2055
      2  C5       -47.1210  -29.1730    3.5820 C.ar  201  FBB201      0.1246
      3  C6       -48.3880  -29.0210    3.0100 C.ar  201  FBB201     -0.0244
      4  C1       -49.4940  -28.9890    3.8340 C.ar  201  FBB201     -0.0324
      5  C4       -46.9390  -29.3260    4.9360 C.ar  201  FBB201     -0.0106
      6  C3       -48.0470  -29.3220    5.7650 C.ar  201  FBB201      0.0435
      7  S9       -48.2400  -29.4610    7.4140 S.2   201  FBB201     -0.0525
      8  C8       -49.9150  -29.3130    7.4210 C.ar  201  FBB201      0.1566
      9  N11      -50.7690  -29.3390    8.5790 N.pl3 201  FBB201     -0.3375
     10  N7       -50.3860  -29.1340    6.1520 N.ar  201  FBB201     -0.2251
     11  C2       -49.2990  -29.1430    5.2150 C.ar  201  FBB201      0.0804
     12  H1       -48.4450  -28.8910    2.0950 H     201  FBB201      0.0647
     13  H2       -50.3490  -28.8700    3.4890 H     201  FBB201      0.0640
     14  H3       -46.0860  -29.4450    5.2880 H     201  FBB201      0.0658
     15  H4       -50.8040  -30.0430    9.0710 H     201  FBB201      0.1442
     16  H5       -51.2440  -28.6500    8.7790 H     201  FBB201      0.1442
@<TRIPOS>BOND
     1    12     3    1
     2     1     2    1
     3     3     2   ar
     4     3     4   ar
     5    13     4    1
     6     2     5   ar
     7     4    11   ar
     8     5    14    1
     9     5     6   ar
    10    11     6   ar
    11    11    10   ar
    12     6     7   ar
    13    10     8   ar
    14     7     8   ar
    15     8     9    1
    16     9    16    1
    17     9    15    1
