2SX
  -OEChem-02242320003D

 22 23  0     0  0  0  0  0  0999 V2000
   -2.9670    1.1250   -1.3020 O   0  0  0  0  0  0  0  0  0  0  0  0
   -3.2550    1.5080   -0.1930 C   0  0  0  0  0  0  0  0  0  0  0  0
   -3.8970    2.6760   -0.0330 O   0  0  0  0  0  0  0  0  0  0  0  0
   -2.8980    0.6740    1.0100 C   0  0  0  0  0  0  0  0  0  0  0  0
   -2.1940   -0.5810    0.5600 C   0  0  0  0  0  0  0  0  0  0  0  0
   -0.7640   -0.7240    0.2780 C   0  0  0  0  0  0  0  0  0  0  0  0
    0.3250    0.1480    0.3220 C   0  0  0  0  0  0  0  0  0  0  0  0
    1.5800   -0.3110   -0.0120 C   0  0  0  0  0  0  0  0  0  0  0  0
    3.0580    0.8660    0.0460 Br  0  0  0  0  0  0  0  0  0  0  0  0
   -2.7590   -1.7800    0.3460 C   0  0  0  0  0  0  0  0  0  0  0  0
   -1.8060   -2.6800   -0.0490 N   0  0  0  0  0  0  0  0  0  0  0  0
   -0.5750   -2.0640   -0.1060 C   0  0  0  0  0  0  0  0  0  0  0  0
    0.7000   -2.5070   -0.4400 C   0  0  0  0  0  0  0  0  0  0  0  0
    1.7650   -1.6340   -0.3910 C   0  0  0  0  0  0  0  0  0  0  0  0
   -4.1090    3.1750   -0.8340 H   0  0  0  0  0  0  0  0  0  0  0  0
   -2.2400    1.2440    1.6660 H   0  0  0  0  0  0  0  0  0  0  0  0
   -3.8070    0.4070    1.5490 H   0  0  0  0  0  0  0  0  0  0  0  0
    0.1850    1.1780    0.6170 H   0  0  0  0  0  0  0  0  0  0  0  0
   -3.8090   -2.0020    0.4680 H   0  0  0  0  0  0  0  0  0  0  0  0
   -1.9740   -3.6110   -0.2610 H   0  0  0  0  0  0  0  0  0  0  0  0
    0.8570   -3.5350   -0.7290 H   0  0  0  0  0  0  0  0  0  0  0  0
    2.7540   -1.9820   -0.6510 H   0  0  0  0  0  0  0  0  0  0  0  0
 10 11  1  0  0  0  0
 11 12  1  0  0  0  0
 12 13  2  0  0  0  0
 13 14  1  0  0  0  0
  5 10  2  0  0  0  0
  6 12  1  0  0  0  0
  8 14  2  0  0  0  0
  5  6  1  0  0  0  0
  4  5  1  0  0  0  0
  6  7  2  0  0  0  0
  7  8  1  0  0  0  0
  8  9  1  0  0  0  0
  2  4  1  0  0  0  0
  1  2  2  0  0  0  0
  2  3  1  0  0  0  0
  3 15  1  0  0  0  0
  4 16  1  0  0  0  0
  4 17  1  0  0  0  0
  7 18  1  0  0  0  0
 10 19  1  0  0  0  0
 11 20  1  0  0  0  0
 13 21  1  0  0  0  0
 14 22  1  0  0  0  0
M  END
> <OPENEYE_ISO_SMILES>
c1cc2c(cc1Br)c(c[nH]2)CC(=O)O

> <OPENEYE_INCHI>
InChI=1S/C10H8BrNO2/c11-7-1-2-9-8(4-7)6(5-12-9)3-10(13)14/h1-2,4-5,12H,3H2,(H,13,14)

> <OPENEYE_INCHIKEY>
WTFGHMZUJMRWBK-UHFFFAOYSA-N

> <FORMULA>
C10H8BrNO2

$$$$
