LQI
  -OEChem-02242320033D

 35 37  0     0  0  0  0  0  0999 V2000
    1.7270    0.6170   -0.4370 N   0  0  0  0  0  0  0  0  0  0  0  0
    1.5500   -0.8380   -0.5500 C   0  0  0  0  0  0  0  0  0  0  0  0
    3.0590    1.1870   -0.6820 C   0  0  0  0  0  0  0  0  0  0  0  0
    4.0740    0.4710    0.2150 C   0  0  0  0  0  0  0  0  0  0  0  0
    0.6870    1.4130   -0.1210 C   0  0  0  0  0  0  0  0  0  0  0  0
   -0.6710    0.8540   -0.0490 C   0  0  0  0  0  0  0  0  0  0  0  0
   -2.8820    0.5790    0.2920 C   0  0  0  0  0  0  0  0  0  0  0  0
   -4.5100   -1.6060   -0.1620 C   0  0  0  0  0  0  0  0  0  0  0  0
   -2.3350   -0.6040   -0.2390 C   0  0  0  0  0  0  0  0  0  0  0  0
    5.0200   -1.7540    0.8460 C   0  0  0  0  0  0  0  0  0  0  0  0
    3.9840   -1.0380   -0.0230 C   0  0  0  0  0  0  0  0  0  0  0  0
    2.5820   -1.5310    0.3450 C   0  0  0  0  0  0  0  0  0  0  0  0
    0.8710    2.5940    0.1050 O   0  0  0  0  0  0  0  0  0  0  0  0
   -1.7660    1.5180    0.4030 C   0  0  0  0  0  0  0  0  0  0  0  0
   -4.2450    0.6480    0.5900 C   0  0  0  0  0  0  0  0  0  0  0  0
   -5.0440   -0.4370    0.3630 C   0  0  0  0  0  0  0  0  0  0  0  0
   -3.1670   -1.6950   -0.4610 C   0  0  0  0  0  0  0  0  0  0  0  0
   -1.0180   -0.3940   -0.4280 O   0  0  0  0  0  0  0  0  0  0  0  0
    0.5450   -1.1090   -0.2270 H   0  0  0  0  0  0  0  0  0  0  0  0
    1.6970   -1.1450   -1.5850 H   0  0  0  0  0  0  0  0  0  0  0  0
    3.3310    1.0450   -1.7280 H   0  0  0  0  0  0  0  0  0  0  0  0
    3.0500    2.2510   -0.4460 H   0  0  0  0  0  0  0  0  0  0  0  0
    5.0800    0.8170   -0.0250 H   0  0  0  0  0  0  0  0  0  0  0  0
    3.8540    0.6890    1.2600 H   0  0  0  0  0  0  0  0  0  0  0  0
   -5.1530   -2.4560   -0.3360 H   0  0  0  0  0  0  0  0  0  0  0  0
    4.8250   -1.5390    1.8960 H   0  0  0  0  0  0  0  0  0  0  0  0
    4.9560   -2.8290    0.6770 H   0  0  0  0  0  0  0  0  0  0  0  0
    6.0180   -1.4040    0.5830 H   0  0  0  0  0  0  0  0  0  0  0  0
    4.1800   -1.2530   -1.0730 H   0  0  0  0  0  0  0  0  0  0  0  0
    2.3760   -1.2940    1.3890 H   0  0  0  0  0  0  0  0  0  0  0  0
    2.5260   -2.6090    0.1980 H   0  0  0  0  0  0  0  0  0  0  0  0
   -1.8040    2.5330    0.7700 H   0  0  0  0  0  0  0  0  0  0  0  0
   -4.6660    1.5550    0.9980 H   0  0  0  0  0  0  0  0  0  0  0  0
   -6.0980   -0.3850    0.5920 H   0  0  0  0  0  0  0  0  0  0  0  0
   -2.7630   -2.6100   -0.8680 H   0  0  0  0  0  0  0  0  0  0  0  0
  3  4  1  0  0  0  0
  1  3  1  0  0  0  0
  4 11  1  0  0  0  0
  5 13  2  0  0  0  0
 10 11  1  0  0  0  0
 11 12  1  0  0  0  0
  1  5  1  0  0  0  0
  5  6  1  0  0  0  0
  1  2  1  0  0  0  0
  6 18  1  0  0  0  0
  9 18  1  0  0  0  0
  2 12  1  0  0  0  0
  6 14  2  0  0  0  0
  9 17  2  0  0  0  0
  7  9  1  0  0  0  0
  7 14  1  0  0  0  0
  8 17  1  0  0  0  0
  7 15  2  0  0  0  0
  8 16  2  0  0  0  0
 15 16  1  0  0  0  0
  2 19  1  0  0  0  0
  2 20  1  0  0  0  0
  3 21  1  0  0  0  0
  3 22  1  0  0  0  0
  4 23  1  0  0  0  0
  4 24  1  0  0  0  0
  8 25  1  0  0  0  0
 10 26  1  0  0  0  0
 10 27  1  0  0  0  0
 10 28  1  0  0  0  0
 11 29  1  0  0  0  0
 12 30  1  0  0  0  0
 12 31  1  0  0  0  0
 14 32  1  0  0  0  0
 15 33  1  0  0  0  0
 16 34  1  0  0  0  0
 17 35  1  0  0  0  0
M  END
> <OPENEYE_ISO_SMILES>
CC1CCN(CC1)C(=O)c2cc3ccccc3o2

> <OPENEYE_INCHI>
InChI=1S/C15H17NO2/c1-11-6-8-16(9-7-11)15(17)14-10-12-4-2-3-5-13(12)18-14/h2-5,10-11H,6-9H2,1H3

> <OPENEYE_INCHIKEY>
XNQRJSVFBWPVGG-UHFFFAOYSA-N

> <FORMULA>
C15H17NO2

$$$$
