@<TRIPOS>MOLECULE
/home/pku/3cl/gett_pdb/6FV1/6FV1_mol2/ligand/6FV1_E8E.pdb
 39 41 0 0 0
SMALL
GASTEIGER

@<TRIPOS>ATOM
      1  C10       49.7300    5.1970   51.9530 C.ar  401  E8E401      0.0000
      2  C20       51.5130   12.1820   48.4540 C.3   401  E8E401      0.1730
      3  O01       50.6980    9.8350   47.2310 O.2   401  E8E401     -0.2684
      4  C02       50.8750    9.8740   48.5050 C.2   401  E8E401      0.2653
      5  C03       50.7490    8.7060   49.4970 C.2   401  E8E401      0.0595
      6  C05       50.2770    7.3810   49.0190 C.2   401  E8E401      0.0047
      7  C07       50.1260    6.2790   49.8520 C.ar  401  E8E401      0.0001
      8  C08       49.9130    6.3890   51.2340 C.ar  401  E8E401      0.0000
      9  C12       49.7400    3.9360   51.3290 C.ar  401  E8E401      0.0000
     10  C14       49.9320    3.8290   49.9580 C.ar  401  E8E401      0.0000
     11  C16       50.1170    5.0010   49.2360 C.ar  401  E8E401      0.0000
     12  C74       56.5390   15.8950   51.1770 C.ar  401  E8E401     -0.0026
     13  C82       57.1280   15.2100   52.2690 C.ar  401  E8E401     -0.0003
     14  C80       58.1380   15.8530   52.9660 C.ar  401  E8E401     -0.0000
     15  C78       58.5990   17.1280   52.5790 C.ar  401  E8E401     -0.0003
     16  C76       58.0210   17.7730   51.4770 C.ar  401  E8E401     -0.0026
     17  C73       56.9900   17.1570   50.7420 C.ar  401  E8E401     -0.0006
     18  C70       56.3960   17.8660   49.6710 C.3   401  E8E401      0.1415
     19  N68       55.4110   17.0110   48.9610 N.am  401  E8E401     -0.1984
     20  C66       55.6400   16.2790   47.8350 C.2   401  E8E401      0.2739
     21  O67       56.7060   16.2380   47.2270 O.2   401  E8E401     -0.2705
     22  C57       54.4480   15.4640   47.4340 C.3   401  E8E401      0.2487
     23  O58       53.3330   15.8070   48.3620 O.3   401  E8E401     -0.2113
     24  C40       54.7030   13.9740   47.6240 C.3   401  E8E401      0.1351
     25  C42       55.6450   13.3410   46.5500 C.3   401  E8E401      0.0340
     26  C45       55.9850   11.8690   46.8290 C.3   401  E8E401      0.0818
     27  C54       56.8230   11.7180   48.1250 C.3   401  E8E401      0.0326
     28  C51       57.7820   10.5880   47.8000 C.3   401  E8E401      0.1156
     29  N49       57.8300   10.5680   46.2890 N.am  401  E8E401     -0.2054
     30  C47       56.8470   11.3140   45.7720 C.2   401  E8E401      0.2410
     31  O48       56.5950   11.3560   44.5610 O.2   401  E8E401     -0.2734
     32  N38       53.3520   13.3660   47.5300 N.am  401  E8E401     -0.2026
     33  C36       52.8730   12.6670   48.6110 C.2   401  E8E401      0.2613
     34  O37       53.4800   12.5010   49.6630 O.2   401  E8E401     -0.2715
     35  C22       50.5870   13.2470   49.0590 C.3   401  E8E401      0.0311
     36  C25       49.0970   12.9040   48.8280 C.3   401  E8E401      0.0022
     37  C34       48.6620   13.1870   47.4050 C.3   401  E8E401      0.0001
     38  C26       48.2450   13.7990   49.7910 C.3   401  E8E401      0.0001
     39  N18       51.3490   10.9270   49.1710 N.am  401  E8E401     -0.1940
@<TRIPOS>BOND
     1    31    30    2
     2    30    29   am
     3    30    26    1
     4    29    28    1
     5    25    26    1
     6    25    24    1
     7    26    27    1
     8    21    20    2
     9     3     4    2
    10    37    36    1
    11    22    24    1
    12    22    20    1
    13    22    23    1
    14    32    24    1
    15    32    33   am
    16    28    27    1
    17    20    19   am
    18     2    33    1
    19     2    35    1
    20     2    39    1
    21     4    39   am
    22     4     5    1
    23    33    34    2
    24    36    35    1
    25    36    38    1
    26    19    18    1
    27     6     5    2
    28     6     7    1
    29    11     7   ar
    30    11    10   ar
    31    18    17    1
    32     7     8   ar
    33    10     9   ar
    34    17    12   ar
    35    17    16   ar
    36    12    13   ar
    37     8     1   ar
    38     9     1   ar
    39    16    15   ar
    40    13    14   ar
    41    15    14   ar
