W5J
  -OEChem-02242320043D

 28 29  0     1  0  0  0  0  0999 V2000
   -1.5930    2.2820   -0.1110 C   0  0  0  0  0  0  0  0  0  0  0  0
   -2.5210   -1.7070    0.2240 C   0  0  0  0  0  0  0  0  0  0  0  0
    0.3750   -1.6680   -1.0090 C   0  0  0  0  0  0  0  0  0  0  0  0
    1.6830    0.1310   -0.0510 C   0  0  0  0  0  0  0  0  0  0  0  0
    2.8820   -0.7740    0.2350 C   0  0  0  0  0  0  0  0  0  0  0  0
    4.1530    0.0290    0.1310 C   0  0  0  0  0  0  0  0  0  0  0  0
   -0.6670    0.1720    0.0190 C   0  0  0  0  0  0  0  0  0  0  0  0
   -3.0590    0.5170    0.0660 C   0  0  0  0  0  0  0  0  0  0  0  0
   -3.8570   -1.5720    0.2430 C   0  0  0  0  0  0  0  0  0  0  0  0
   -1.9620   -0.3630    0.1020 C   0  0  0  0  0  0  0  0  0  0  0  0
    0.4440   -0.6520    0.0500 N   0  0  1  0  0  0  0  0  0  0  0  0
   -0.5350    1.4910   -0.0860 N   0  0  0  0  0  0  0  0  0  0  0  0
   -2.8240    1.8250   -0.0360 N   0  0  0  0  0  0  0  0  0  0  0  0
   -4.1910   -0.2450    0.1590 N   0  0  0  0  0  0  0  0  0  0  0  0
    5.3400   -0.5620    0.3430 O   0  0  0  0  0  0  0  0  0  0  0  0
    4.1050    1.2040   -0.1440 O   0  0  0  0  0  0  0  0  0  0  0  0
   -1.4400    3.3480   -0.1930 H   0  0  0  0  0  0  0  0  0  0  0  0
   -1.9670   -2.6330    0.2760 H   0  0  0  0  0  0  0  0  0  0  0  0
    1.2240   -2.3450   -0.9180 H   0  0  0  0  0  0  0  0  0  0  0  0
   -0.5520   -2.2330   -0.9100 H   0  0  0  0  0  0  0  0  0  0  0  0
    0.4010   -1.1800   -1.9830 H   0  0  0  0  0  0  0  0  0  0  0  0
    1.6590    0.9430    0.6750 H   0  0  0  0  0  0  0  0  0  0  0  0
    1.7700    0.5440   -1.0560 H   0  0  0  0  0  0  0  0  0  0  0  0
    2.7950   -1.1880    1.2400 H   0  0  0  0  0  0  0  0  0  0  0  0
    2.9060   -1.5870   -0.4910 H   0  0  0  0  0  0  0  0  0  0  0  0
   -4.5630   -2.3860    0.3250 H   0  0  0  0  0  0  0  0  0  0  0  0
   -5.0970    0.1020    0.1660 H   0  0  0  0  0  0  0  0  0  0  0  0
    6.1270   -0.0070    0.2660 H   0  0  0  0  0  0  0  0  0  0  0  0
  4  5  1  0  0  0  0
  5  6  1  0  0  0  0
  3 11  1  0  0  0  0
  6 16  2  0  0  0  0
  4 11  1  0  0  0  0
  6 15  1  0  0  0  0
  7 11  1  0  0  0  0
  7 10  2  0  0  0  0
  7 12  1  0  0  0  0
  2 10  1  0  0  0  0
  2  9  2  0  0  0  0
  8 10  1  0  0  0  0
  1 12  2  0  0  0  0
  9 14  1  0  0  0  0
  1 13  1  0  0  0  0
  8 14  1  0  0  0  0
  8 13  2  0  0  0  0
  1 17  1  0  0  0  0
  2 18  1  0  0  0  0
  3 19  1  0  0  0  0
  3 20  1  0  0  0  0
  3 21  1  0  0  0  0
  4 22  1  0  0  0  0
  4 23  1  0  0  0  0
  5 24  1  0  0  0  0
  5 25  1  0  0  0  0
  9 26  1  0  0  0  0
 14 27  1  0  0  0  0
 15 28  1  0  0  0  0
M  END
> <OPENEYE_ISO_SMILES>
C[N@@](CCC(=O)O)c1c2cc[nH]c2ncn1

> <OPENEYE_INCHI>
InChI=1S/C10H12N4O2/c1-14(5-3-8(15)16)10-7-2-4-11-9(7)12-6-13-10/h2,4,6H,3,5H2,1H3,(H,15,16)(H,11,12,13)

> <OPENEYE_INCHIKEY>
GRUOKIVOQBHPDL-UHFFFAOYSA-N

> <FORMULA>
C10H12N4O2

$$$$
