G85
  -OEChem-02242320023D

 95 97  0     1  0  0  0  0  0999 V2000
   -4.9100   -0.0820    1.0050 C   0  0  0  0  0  0  0  0  0  0  0  0
   -4.8630   -0.2690    2.2040 O   0  0  0  0  0  0  0  0  0  0  0  0
   -6.0870    0.1880    0.4100 O   0  0  0  0  0  0  0  0  0  0  0  0
   -7.2600    0.2410    1.2650 C   0  0  0  0  0  0  0  0  0  0  0  0
   -8.4750    0.5530    0.4310 C   0  0  0  0  0  0  0  0  0  0  0  0
   -9.2130   -0.4740   -0.1280 C   0  0  0  0  0  0  0  0  0  0  0  0
  -10.3280   -0.1870   -0.8930 C   0  0  0  0  0  0  0  0  0  0  0  0
  -10.7080    1.1260   -1.0960 C   0  0  0  0  0  0  0  0  0  0  0  0
   -9.9730    2.1530   -0.5330 C   0  0  0  0  0  0  0  0  0  0  0  0
   -8.8590    1.8670    0.2320 C   0  0  0  0  0  0  0  0  0  0  0  0
   -1.3780    0.1260    0.0850 C   0  0  0  0  0  0  0  0  0  0  0  0
   -3.7820   -0.1460    0.2690 N   0  0  0  0  0  0  0  0  0  0  0  0
   -1.6230    0.7170   -0.9450 O   0  0  0  0  0  0  0  0  0  0  0  0
   -3.2710   -4.6020    0.4400 C   0  0  0  0  0  0  0  0  0  0  0  0
   -0.7890   -4.3170    0.4900 C   0  0  0  0  0  0  0  0  0  0  0  0
   -1.9860   -4.4610   -1.6980 C   0  0  0  0  0  0  0  0  0  0  0  0
   -2.5010   -0.4400    0.9150 C   0  0  1  0  0  0  0  0  0  0  0  0
   -2.3290   -1.9550    1.0410 C   0  0  0  0  0  0  0  0  0  0  0  0
   -2.0740   -3.9530   -0.2580 C   0  0  0  0  0  0  0  0  0  0  0  0
   -2.2370   -2.5340   -0.2620 O   0  0  0  0  0  0  0  0  0  0  0  0
   -0.1000   -0.0250    0.4880 N   0  0  0  0  0  0  0  0  0  0  0  0
    0.9920    0.5250   -0.3190 C   0  0  2  0  0  0  0  0  0  0  0  0
    2.2570   -0.2480   -0.0470 C   0  0  0  0  0  0  0  0  0  0  0  0
    2.2460   -1.1680    0.7440 O   0  0  0  0  0  0  0  0  0  0  0  0
    1.2050    1.9960    0.0450 C   0  0  0  0  0  0  0  0  0  0  0  0
   -0.0160    2.7910   -0.3410 C   0  0  0  0  0  0  0  0  0  0  0  0
   -1.0480    2.9560    0.5640 C   0  0  0  0  0  0  0  0  0  0  0  0
   -0.1010    3.3600   -1.5980 C   0  0  0  0  0  0  0  0  0  0  0  0
   -2.1680    3.6840    0.2090 C   0  0  0  0  0  0  0  0  0  0  0  0
   -1.2200    4.0890   -1.9520 C   0  0  0  0  0  0  0  0  0  0  0  0
   -2.2550    4.2490   -1.0500 C   0  0  0  0  0  0  0  0  0  0  0  0
    7.0390    3.6100    0.7700 O   0  0  0  0  0  0  0  0  0  0  0  0
    8.1800    4.4520    0.4580 C   0  0  0  0  0  0  0  0  0  0  0  0
    8.1640    5.6870    1.3600 C   0  0  0  0  0  0  0  0  0  0  0  0
    3.3980    0.0820   -0.6810 N   0  0  0  0  0  0  0  0  0  0  0  0
    4.6520   -0.5920   -0.3340 C   0  0  1  0  0  0  0  0  0  0  0  0
    4.8010   -1.8580   -1.1810 C   0  0  0  0  0  0  0  0  0  0  0  0
    6.0400   -2.6320   -0.7270 C   0  0  1  0  0  0  0  0  0  0  0  0
    5.8290    0.3460   -0.6060 C   0  0  0  0  0  0  0  0  0  0  0  0
    5.8530   -3.1520    0.6820 C   0  0  0  0  0  0  0  0  0  0  0  0
    5.9540   -2.4830    1.6880 O   0  0  0  0  0  0  0  0  0  0  0  0
    5.5570   -4.4630    0.6550 N   0  0  0  0  0  0  0  0  0  0  0  0
    5.5010   -4.9690   -0.7220 C   0  0  0  0  0  0  0  0  0  0  0  0
    6.2240   -3.9080   -1.5810 C   0  0  0  0  0  0  0  0  0  0  0  0
    5.7460    1.5530    0.3300 C   0  0  0  0  0  0  0  0  0  0  0  0
    6.9060    2.4770    0.0620 C   0  0  0  0  0  0  0  0  0  0  0  0
    7.7150    2.1990   -0.7910 O   0  0  0  0  0  0  0  0  0  0  0  0
   -7.1260    1.0180    2.0180 H   0  0  0  0  0  0  0  0  0  0  0  0
   -7.3940   -0.7220    1.7570 H   0  0  0  0  0  0  0  0  0  0  0  0
   -8.9160   -1.5000    0.0310 H   0  0  0  0  0  0  0  0  0  0  0  0
  -10.9050   -0.9890   -1.3290 H   0  0  0  0  0  0  0  0  0  0  0  0
  -11.5790    1.3500   -1.6940 H   0  0  0  0  0  0  0  0  0  0  0  0
  -10.2700    3.1800   -0.6920 H   0  0  0  0  0  0  0  0  0  0  0  0
   -8.2850    2.6690    0.6720 H   0  0  0  0  0  0  0  0  0  0  0  0
   -3.8190    0.0040   -0.6890 H   0  0  0  0  0  0  0  0  0  0  0  0
   -3.1460   -5.6850    0.4440 H   0  0  0  0  0  0  0  0  0  0  0  0
   -3.3330   -4.2400    1.4670 H   0  0  0  0  0  0  0  0  0  0  0  0
   -4.1860   -4.3430   -0.0920 H   0  0  0  0  0  0  0  0  0  0  0  0
   -0.6650   -5.4000    0.4930 H   0  0  0  0  0  0  0  0  0  0  0  0
    0.0640   -3.8550   -0.0070 H   0  0  0  0  0  0  0  0  0  0  0  0
   -0.8510   -3.9550    1.5160 H   0  0  0  0  0  0  0  0  0  0  0  0
   -2.9010   -4.2020   -2.2310 H   0  0  0  0  0  0  0  0  0  0  0  0
   -1.1340   -3.9990   -2.1950 H   0  0  0  0  0  0  0  0  0  0  0  0
   -1.8620   -5.5440   -1.6950 H   0  0  0  0  0  0  0  0  0  0  0  0
   -2.4820    0.0110    1.9080 H   0  0  0  0  0  0  0  0  0  0  0  0
   -1.4190   -2.1720    1.6010 H   0  0  0  0  0  0  0  0  0  0  0  0
   -3.1880   -2.3760    1.5650 H   0  0  0  0  0  0  0  0  0  0  0  0
    0.0960   -0.4980    1.3120 H   0  0  0  0  0  0  0  0  0  0  0  0
    0.7380    0.4460   -1.3760 H   0  0  0  0  0  0  0  0  0  0  0  0
    1.3710    2.0830    1.1190 H   0  0  0  0  0  0  0  0  0  0  0  0
    2.0730    2.3800   -0.4890 H   0  0  0  0  0  0  0  0  0  0  0  0
   -0.9800    2.5150    1.5470 H   0  0  0  0  0  0  0  0  0  0  0  0
    0.7080    3.2340   -2.3030 H   0  0  0  0  0  0  0  0  0  0  0  0
   -2.9770    3.8090    0.9140 H   0  0  0  0  0  0  0  0  0  0  0  0
   -1.2860    4.5340   -2.9340 H   0  0  0  0  0  0  0  0  0  0  0  0
   -3.1300    4.8180   -1.3270 H   0  0  0  0  0  0  0  0  0  0  0  0
    9.1010    3.8930    0.6230 H   0  0  0  0  0  0  0  0  0  0  0  0
    8.1270    4.7640   -0.5850 H   0  0  0  0  0  0  0  0  0  0  0  0
    7.2440    6.2470    1.1950 H   0  0  0  0  0  0  0  0  0  0  0  0
    8.2170    5.3760    2.4040 H   0  0  0  0  0  0  0  0  0  0  0  0
    9.0210    6.3190    1.1260 H   0  0  0  0  0  0  0  0  0  0  0  0
    3.3910    0.7670   -1.3680 H   0  0  0  0  0  0  0  0  0  0  0  0
    4.6380   -0.8620    0.7220 H   0  0  0  0  0  0  0  0  0  0  0  0
    3.9170   -2.4830   -1.0590 H   0  0  0  0  0  0  0  0  0  0  0  0
    4.9090   -1.5820   -2.2300 H   0  0  0  0  0  0  0  0  0  0  0  0
    6.9260   -2.0000   -0.7850 H   0  0  0  0  0  0  0  0  0  0  0  0
    6.7650   -0.1850   -0.4330 H   0  0  0  0  0  0  0  0  0  0  0  0
    5.7910    0.6860   -1.6410 H   0  0  0  0  0  0  0  0  0  0  0  0
    5.4010   -5.0050    1.4440 H   0  0  0  0  0  0  0  0  0  0  0  0
    6.0160   -5.9270   -0.7930 H   0  0  0  0  0  0  0  0  0  0  0  0
    4.4650   -5.0720   -1.0440 H   0  0  0  0  0  0  0  0  0  0  0  0
    5.7440   -3.7990   -2.5530 H   0  0  0  0  0  0  0  0  0  0  0  0
    7.2800   -4.1520   -1.6940 H   0  0  0  0  0  0  0  0  0  0  0  0
    4.8100    2.0840    0.1560 H   0  0  0  0  0  0  0  0  0  0  0  0
    5.7840    1.2130    1.3650 H   0  0  0  0  0  0  0  0  0  0  0  0
  6  7  2  0  0  0  0
  7  8  1  0  0  0  0
  5  6  1  0  0  0  0
 33 34  1  0  0  0  0
 32 33  1  0  0  0  0
  5 10  2  0  0  0  0
  4  5  1  0  0  0  0
  9 10  1  0  0  0  0
 29 31  2  0  0  0  0
 27 29  1  0  0  0  0
  8  9  2  0  0  0  0
 30 31  1  0  0  0  0
 28 30  2  0  0  0  0
 14 19  1  0  0  0  0
  3  4  1  0  0  0  0
  1  3  1  0  0  0  0
  1  2  2  0  0  0  0
  1 12  1  0  0  0  0
 12 17  1  0  0  0  0
 17 18  1  0  0  0  0
 11 17  1  0  0  0  0
 18 20  1  0  0  0  0
 19 20  1  0  0  0  0
 16 19  1  0  0  0  0
 15 19  1  0  0  0  0
 11 21  1  0  0  0  0
 11 13  2  0  0  0  0
 21 22  1  0  0  0  0
 22 23  1  0  0  0  0
 22 25  1  0  0  0  0
 23 24  2  0  0  0  0
 23 35  1  0  0  0  0
 25 26  1  0  0  0  0
 35 36  1  0  0  0  0
 26 27  2  0  0  0  0
 26 28  1  0  0  0  0
 36 37  1  0  0  0  0
 36 39  1  0  0  0  0
 37 38  1  0  0  0  0
 38 40  1  0  0  0  0
 38 44  1  0  0  0  0
 39 45  1  0  0  0  0
 40 41  2  0  0  0  0
 40 42  1  0  0  0  0
 42 43  1  0  0  0  0
 43 44  1  0  0  0  0
 45 46  1  0  0  0  0
 32 46  1  0  0  0  0
 46 47  2  0  0  0  0
  7 51  1  0  0  0  0
  6 50  1  0  0  0  0
 33 77  1  0  0  0  0
 33 78  1  0  0  0  0
 34 79  1  0  0  0  0
 34 80  1  0  0  0  0
 34 81  1  0  0  0  0
 10 54  1  0  0  0  0
 29 74  1  0  0  0  0
  9 53  1  0  0  0  0
 31 76  1  0  0  0  0
  8 52  1  0  0  0  0
 30 75  1  0  0  0  0
 14 56  1  0  0  0  0
 14 57  1  0  0  0  0
 14 58  1  0  0  0  0
  4 48  1  0  0  0  0
  4 49  1  0  0  0  0
 12 55  1  0  0  0  0
 17 65  1  0  0  0  0
 18 66  1  0  0  0  0
 18 67  1  0  0  0  0
 21 68  1  0  0  0  0
 22 69  1  0  0  0  0
 25 70  1  0  0  0  0
 25 71  1  0  0  0  0
 16 62  1  0  0  0  0
 16 63  1  0  0  0  0
 16 64  1  0  0  0  0
 15 59  1  0  0  0  0
 15 60  1  0  0  0  0
 15 61  1  0  0  0  0
 35 82  1  0  0  0  0
 27 72  1  0  0  0  0
 28 73  1  0  0  0  0
 36 83  1  0  0  0  0
 37 84  1  0  0  0  0
 37 85  1  0  0  0  0
 38 86  1  0  0  0  0
 39 87  1  0  0  0  0
 39 88  1  0  0  0  0
 42 89  1  0  0  0  0
 43 90  1  0  0  0  0
 43 91  1  0  0  0  0
 44 92  1  0  0  0  0
 44 93  1  0  0  0  0
 45 94  1  0  0  0  0
 45 95  1  0  0  0  0
M  END
> <OPENEYE_ISO_SMILES>
CCOC(=O)CC[C@H](C[C@@H]1CCNC1=O)NC(=O)[C@H](Cc2ccccc2)NC(=O)[C@H](COC(C)(C)C)NC(=O)OCc3ccccc3

> <OPENEYE_INCHI>
InChI=1S/C35H48N4O8/c1-5-45-30(40)17-16-27(21-26-18-19-36-31(26)41)37-32(42)28(20-24-12-8-6-9-13-24)38-33(43)29(23-47-35(2,3)4)39-34(44)46-22-25-14-10-7-11-15-25/h6-15,26-29H,5,16-23H2,1-4H3,(H,36,41)(H,37,42)(H,38,43)(H,39,44)/t26-,27+,28-,29-/m0/s1

> <OPENEYE_INCHIKEY>
JRBUWNJDFCUWEM-CRNKYVSFSA-N

> <FORMULA>
C35H48N4O8

$$$$
