VHJ
  -OEChem-02242320043D

 77 79  0     1  0  0  0  0  0999 V2000
    9.4270    1.5450    0.9860 C   0  0  0  0  0  0  0  0  0  0  0  0
    0.5320    1.6040   -1.6570 C   0  0  0  0  0  0  0  0  0  0  0  0
    1.5120   -1.5840   -0.2020 C   0  0  2  0  0  0  0  0  0  0  0  0
    0.2960   -0.7260    0.0340 C   0  0  0  0  0  0  0  0  0  0  0  0
    1.6320    2.3810   -1.3450 C   0  0  0  0  0  0  0  0  0  0  0  0
   -2.0100   -0.1090   -0.4530 C   0  0  2  0  0  0  0  0  0  0  0  0
   -3.2770   -0.8800   -0.7220 C   0  0  0  0  0  0  0  0  0  0  0  0
    1.5020    3.4460   -0.4740 C   0  0  0  0  0  0  0  0  0  0  0  0
   -5.7040   -1.0120   -0.8960 C   0  0  1  0  0  0  0  0  0  0  0  0
    0.2710    3.7360    0.0840 C   0  0  0  0  0  0  0  0  0  0  0  0
   -6.8710   -0.3460   -0.1650 C   0  0  0  0  0  0  0  0  0  0  0  0
    9.1040    0.3480    1.5970 C   0  0  0  0  0  0  0  0  0  0  0  0
   -6.6500   -0.4440    1.3450 C   0  0  2  0  0  0  0  0  0  0  0  0
   -7.8330    0.1970    2.1080 C   0  0  0  0  0  0  0  0  0  0  0  0
   -7.3190    1.6350    2.3350 C   0  0  0  0  0  0  0  0  0  0  0  0
   -0.8300    2.9600   -0.2290 C   0  0  0  0  0  0  0  0  0  0  0  0
   -5.4510    0.3810    1.7600 C   0  0  0  0  0  0  0  0  0  0  0  0
   -5.9840   -1.0250   -2.4000 C   0  0  0  0  0  0  0  0  0  0  0  0
    8.0800   -0.4320    1.0930 C   0  0  0  0  0  0  0  0  0  0  0  0
    1.3910   -2.8750    0.6090 C   0  0  0  0  0  0  0  0  0  0  0  0
    2.5750   -3.7900    0.2920 C   0  0  0  0  0  0  0  0  0  0  0  0
    1.3910   -2.5410    2.1020 C   0  0  0  0  0  0  0  0  0  0  0  0
   -1.9000    1.0520   -1.4440 C   0  0  0  0  0  0  0  0  0  0  0  0
    7.3790   -0.0150   -0.0230 C   0  0  0  0  0  0  0  0  0  0  0  0
    7.7020    1.1820   -0.6350 C   0  0  0  0  0  0  0  0  0  0  0  0
    8.7220    1.9650   -0.1270 C   0  0  0  0  0  0  0  0  0  0  0  0
    6.2640   -0.8660   -0.5740 C   0  0  0  0  0  0  0  0  0  0  0  0
   -0.6990    1.8940   -1.0990 C   0  0  0  0  0  0  0  0  0  0  0  0
    3.9080   -1.1570   -0.3290 C   0  0  0  0  0  0  0  0  0  0  0  0
    2.7130   -0.8550    0.2150 N   0  0  0  0  0  0  0  0  0  0  0  0
   -0.8560   -0.9970   -0.6110 N   0  0  0  0  0  0  0  0  0  0  0  0
   -4.4720   -0.2630   -0.6350 N   0  0  0  0  0  0  0  0  0  0  0  0
   -5.8550    1.5360    2.3160 N   0  0  0  0  0  0  0  0  0  0  0  0
   -6.2500    0.3060   -2.8460 O   0  0  0  0  0  0  0  0  0  0  0  0
   -4.2940    0.0470    1.6120 O   0  0  0  0  0  0  0  0  0  0  0  0
    3.9900   -2.0340   -1.1660 O   0  0  0  0  0  0  0  0  0  0  0  0
    0.3540    0.2090    0.8050 O   0  0  0  0  0  0  0  0  0  0  0  0
   -3.2210   -2.0550   -1.0160 O   0  0  0  0  0  0  0  0  0  0  0  0
    5.0110   -0.4880    0.0550 O   0  0  0  0  0  0  0  0  0  0  0  0
   10.2270    2.1540    1.3800 H   0  0  0  0  0  0  0  0  0  0  0  0
    0.6330    0.7740   -2.3410 H   0  0  0  0  0  0  0  0  0  0  0  0
    1.5850   -1.8270   -1.2620 H   0  0  0  0  0  0  0  0  0  0  0  0
    2.5940    2.1540   -1.7810 H   0  0  0  0  0  0  0  0  0  0  0  0
   -2.0320    0.2820    0.5640 H   0  0  0  0  0  0  0  0  0  0  0  0
    2.3620    4.0520   -0.2300 H   0  0  0  0  0  0  0  0  0  0  0  0
   -5.5890   -2.0360   -0.5390 H   0  0  0  0  0  0  0  0  0  0  0  0
    0.1690    4.5680    0.7650 H   0  0  0  0  0  0  0  0  0  0  0  0
   -6.9310    0.7030   -0.4560 H   0  0  0  0  0  0  0  0  0  0  0  0
   -7.8010   -0.8490   -0.4300 H   0  0  0  0  0  0  0  0  0  0  0  0
    9.6520    0.0220    2.4690 H   0  0  0  0  0  0  0  0  0  0  0  0
   -6.5190   -1.4840    1.6440 H   0  0  0  0  0  0  0  0  0  0  0  0
   -8.7360    0.1970    1.4980 H   0  0  0  0  0  0  0  0  0  0  0  0
   -8.0050   -0.3110    3.0580 H   0  0  0  0  0  0  0  0  0  0  0  0
   -7.6630    2.2900    1.5350 H   0  0  0  0  0  0  0  0  0  0  0  0
   -1.7910    3.1860    0.2080 H   0  0  0  0  0  0  0  0  0  0  0  0
   -5.1160   -1.4190   -2.9280 H   0  0  0  0  0  0  0  0  0  0  0  0
   -6.8500   -1.6560   -2.6030 H   0  0  0  0  0  0  0  0  0  0  0  0
    7.8280   -1.3680    1.5710 H   0  0  0  0  0  0  0  0  0  0  0  0
    0.4610   -3.3810    0.3500 H   0  0  0  0  0  0  0  0  0  0  0  0
    3.4970   -3.3290    0.6470 H   0  0  0  0  0  0  0  0  0  0  0  0
    2.4350   -4.7510    0.7880 H   0  0  0  0  0  0  0  0  0  0  0  0
    2.6370   -3.9430   -0.7850 H   0  0  0  0  0  0  0  0  0  0  0  0
    0.5470   -1.8890    2.3290 H   0  0  0  0  0  0  0  0  0  0  0  0
    1.3050   -3.4610    2.6810 H   0  0  0  0  0  0  0  0  0  0  0  0
    2.3210   -2.0350    2.3620 H   0  0  0  0  0  0  0  0  0  0  0  0
   -1.7890    0.6580   -2.4540 H   0  0  0  0  0  0  0  0  0  0  0  0
   -2.8010    1.6630   -1.3890 H   0  0  0  0  0  0  0  0  0  0  0  0
    7.1540    1.5070   -1.5070 H   0  0  0  0  0  0  0  0  0  0  0  0
    8.9740    2.9000   -0.6040 H   0  0  0  0  0  0  0  0  0  0  0  0
    6.1900   -0.7160   -1.6510 H   0  0  0  0  0  0  0  0  0  0  0  0
    6.4720   -1.9160   -0.3670 H   0  0  0  0  0  0  0  0  0  0  0  0
    2.6470   -0.1550    0.8840 H   0  0  0  0  0  0  0  0  0  0  0  0
   -0.9200   -1.7800   -1.1800 H   0  0  0  0  0  0  0  0  0  0  0  0
   -4.5170    0.6770   -0.4000 H   0  0  0  0  0  0  0  0  0  0  0  0
   -6.4370    0.3740   -3.7930 H   0  0  0  0  0  0  0  0  0  0  0  0
   -7.6600    2.0100    3.3010 H   0  0  0  0  0  0  0  0  0  0  0  0
   -5.2550    2.2170    2.6590 H   0  0  0  0  0  0  0  0  0  0  0  0
  8 10  2  0  0  0  0
  5  8  1  0  0  0  0
 10 16  1  0  0  0  0
  2  5  2  0  0  0  0
 24 27  1  0  0  0  0
 27 39  1  0  0  0  0
 24 25  2  0  0  0  0
 25 26  1  0  0  0  0
 19 24  1  0  0  0  0
  1 26  2  0  0  0  0
 12 19  2  0  0  0  0
 29 39  1  0  0  0  0
  1 12  1  0  0  0  0
 16 28  2  0  0  0  0
  2 28  1  0  0  0  0
 29 36  2  0  0  0  0
 23 28  1  0  0  0  0
 29 30  1  0  0  0  0
  3 30  1  0  0  0  0
  6 23  1  0  0  0  0
  6 31  1  0  0  0  0
  4 31  1  0  0  0  0
  6  7  1  0  0  0  0
  3  4  1  0  0  0  0
  3 20  1  0  0  0  0
  4 37  2  0  0  0  0
 20 21  1  0  0  0  0
 20 22  1  0  0  0  0
  7 32  1  0  0  0  0
  7 38  2  0  0  0  0
  9 32  1  0  0  0  0
  9 18  1  0  0  0  0
 18 34  1  0  0  0  0
  9 11  1  0  0  0  0
 17 35  2  0  0  0  0
 11 13  1  0  0  0  0
 13 17  1  0  0  0  0
 13 14  1  0  0  0  0
 17 33  1  0  0  0  0
 14 15  1  0  0  0  0
 15 33  1  0  0  0  0
  1 40  1  0  0  0  0
  2 41  1  0  0  0  0
  3 42  1  0  0  0  0
  5 43  1  0  0  0  0
  6 44  1  0  0  0  0
  8 45  1  0  0  0  0
  9 46  1  0  0  0  0
 10 47  1  0  0  0  0
 11 48  1  0  0  0  0
 11 49  1  0  0  0  0
 12 50  1  0  0  0  0
 13 51  1  0  0  0  0
 14 52  1  0  0  0  0
 14 53  1  0  0  0  0
 15 54  1  0  0  0  0
 16 55  1  0  0  0  0
 18 56  1  0  0  0  0
 18 57  1  0  0  0  0
 19 58  1  0  0  0  0
 20 59  1  0  0  0  0
 21 60  1  0  0  0  0
 21 61  1  0  0  0  0
 21 62  1  0  0  0  0
 22 63  1  0  0  0  0
 22 64  1  0  0  0  0
 22 65  1  0  0  0  0
 23 66  1  0  0  0  0
 23 67  1  0  0  0  0
 25 68  1  0  0  0  0
 26 69  1  0  0  0  0
 27 70  1  0  0  0  0
 27 71  1  0  0  0  0
 30 72  1  0  0  0  0
 31 73  1  0  0  0  0
 32 74  1  0  0  0  0
 34 75  1  0  0  0  0
 15 76  1  0  0  0  0
 33 77  1  0  0  0  0
M  END
> <OPENEYE_ISO_SMILES>
CC(C)[C@@H](C(=O)N[C@@H](Cc1ccccc1)C(=O)N[C@@H](C[C@@H]2CCNC2=O)CO)NC(=O)OCc3ccccc3

> <OPENEYE_INCHI>
InChI=1S/C29H38N4O6/c1-19(2)25(33-29(38)39-18-21-11-7-4-8-12-21)28(37)32-24(15-20-9-5-3-6-10-20)27(36)31-23(17-34)16-22-13-14-30-26(22)35/h3-12,19,22-25,34H,13-18H2,1-2H3,(H,30,35)(H,31,36)(H,32,37)(H,33,38)/t22-,23-,24-,25-/m0/s1

> <OPENEYE_INCHIKEY>
AGWXCVPSNAWKHO-QORCZRPOSA-N

> <FORMULA>
C29H38N4O6

$$$$
