@<TRIPOS>MOLECULE
/home/pku/3cl/gett_pdb/6W02/6W02_mol2/ligand/6W02_APR.pdb
 36 39 0 0 0
SMALL
GASTEIGER

@<TRIPOS>ATOM
      1  N1         6.0070   -8.6420  -16.0460 N.ar  201  APR201     -0.2040
      2  C2         5.6550   -7.3730  -15.8100 C.ar  201  APR201      0.2016
      3  N3         5.6270   -6.3460  -16.6510 N.ar  201  APR201     -0.2048
      4  C4         6.0360   -6.7190  -17.8750 C.ar  201  APR201      0.1692
      5  C5         6.4470   -7.9740  -18.2690 C.ar  201  APR201      0.1518
      6  C6         6.4360   -8.9850  -17.2880 C.ar  201  APR201      0.1919
      7  N6         6.7670  -10.2550  -17.5200 N.pl3 201  APR201     -0.1054
      8  N7         6.7850   -7.9610  -19.6200 N.ar  201  APR201     -0.2193
      9  C8         6.5700   -6.7240  -20.0110 C.ar  201  APR201      0.1816
     10  N9         6.1370   -5.9180  -18.9770 N.ar  201  APR201     -0.2693
     11  C1'        5.7050   -4.5370  -19.0050 C.3   201  APR201      0.2409
     12  C2'        6.2060   -3.6570  -20.1420 C.3   201  APR201      0.2337
     13  O2'        7.4910   -3.1390  -19.8640 O.3   201  APR201     -0.2155
     14  C3'        5.1060   -2.5920  -20.1920 C.3   201  APR201      0.2161
     15  O3'        5.3290   -1.5980  -19.2000 O.3   201  APR201     -0.2175
     16  O4'        4.3030   -4.5740  -19.1400 O.3   201  APR201     -0.3306
     17  C4'        3.8410   -3.3910  -19.8400 C.3   201  APR201      0.1801
     18  C5'        2.9800   -3.8350  -20.9990 C.3   201  APR201      0.1813
     19  O5'        3.8450   -4.2610  -22.0730 O.3   201  APR201     -0.3112
     20  PA         3.3980   -5.3740  -23.1440 P.3   201  APR201      0.2189
     21  O1A        3.2480   -6.6850  -22.4570 O.3   201  APR201     -0.4371
     22  O2A        4.3270   -5.2940  -24.3070 O.2   201  APR201     -0.5170
     23  O3A        1.9430   -4.8750  -23.5770 O.3   201  APR201     -0.2703
     24  PB         1.3520   -3.8440  -24.6430 P.3   201  APR201      0.2189
     25  O1B       -0.0890   -3.6240  -24.3370 O.3   201  APR201     -0.4371
     26  O2B        2.2610   -2.6730  -24.7420 O.2   201  APR201     -0.5170
     27  O5D        1.5160   -4.6730  -25.9960 O.3   201  APR201     -0.3112
     28  C5D        0.5780   -5.7220  -26.3270 C.3   201  APR201      0.1813
     29  O4D        2.3630   -7.2190  -26.8470 O.3   201  APR201     -0.3237
     30  O1D        2.8390   -9.2940  -25.9640 O.3   201  APR201     -0.1869
     31  C1D        2.2560   -8.6240  -27.0190 C.3   201  APR201      0.3023
     32  O2D        0.3910  -10.1190  -27.7240 O.3   201  APR201     -0.2148
     33  C2D        0.7510   -8.8890  -27.1300 C.3   201  APR201      0.2433
     34  O3D        0.4730   -7.8800  -29.3370 O.3   201  APR201     -0.2175
     35  C3D        0.2780   -7.6910  -27.9400 C.3   201  APR201      0.2168
     36  C4D        1.1890   -6.5790  -27.4050 C.3   201  APR201      0.1807
@<TRIPOS>BOND
     1    34    35    1
     2    35    36    1
     3    35    33    1
     4    32    33    1
     5    36    29    1
     6    36    28    1
     7    33    31    1
     8    31    29    1
     9    31    30    1
    10    28    27    1
    11    27    24    1
    12    26    24    2
    13    24    25    1
    14    24    23    1
    15    22    20    2
    16    23    20    1
    17    20    21    1
    18    20    19    1
    19    19    18    1
    20    18    17    1
    21    14    12    1
    22    14    17    1
    23    14    15    1
    24    12    13    1
    25    12    11    1
    26     9     8   ar
    27     9    10   ar
    28    17    16    1
    29     8     5   ar
    30    16    11    1
    31    11    10    1
    32    10     4   ar
    33     5     4   ar
    34     5     6   ar
    35     4     3   ar
    36     7     6    1
    37     6     1   ar
    38     3     2   ar
    39     1     2   ar
