@<TRIPOS>MOLECULE
/home/pku/3cl/gett_pdb/8DPR/8DPR_mol2/ligand/8DPR_T43.pdb
 45 49 0 0 0
SMALL
GASTEIGER

@<TRIPOS>ATOM
      1  NAI        7.8500   -4.2950   22.1940 N.ar  401  T43401     -0.2331
      2  CAD        8.4450   -4.9300   23.2380 C.ar  401  T43401      0.1153
      3  CAE        7.9140   -5.2180   24.4660 C.ar  401  T43401      0.1581
      4  FAJ        6.6840   -4.8770   24.7460 F     401  T43401     -0.2026
      5  CAF        8.6520   -5.8700   25.4600 C.ar  401  T43401      0.0312
      6  CAA        9.9620   -6.2150   25.1580 C.ar  401  T43401      0.0029
      7  CAB       10.4740   -5.8960   23.9080 C.ar  401  T43401      0.0082
      8  CAC        9.7370   -5.2850   22.9850 C.ar  401  T43401      0.0508
      9  SAG       10.1480   -4.7610   21.3130 S.2   401  T43401     -0.0636
     10  CAH        8.5440   -4.0860   21.0390 C.ar  401  T43401      0.1471
     11  C          7.9650   -3.4210   19.9670 C.2   401  T43401      0.2161
     12  O          6.9670   -3.9490   19.4250 O.2   401  T43401     -0.2874
     13  CA         7.9560   -1.8150   20.1640 C.3   401  T43401      0.1566
     14  CB         7.4290   -1.0240   18.9530 C.3   401  T43401      0.0388
     15  CG         7.1690    0.4780   19.2800 C.3   401  T43401      0.0821
     16  CD1        5.9960    0.5860   20.2380 C.3   401  T43401      0.0326
     17  CAQ        5.5410    2.0640   19.9850 C.3   401  T43401      0.1156
     18  NAR        5.9170    2.2560   18.4560 N.am  401  T43401     -0.2054
     19  CD2        6.8000    1.2790   18.1340 C.2   401  T43401      0.2410
     20  OAT        7.3150    1.1750   17.0080 O.2   401  T43401     -0.2734
     21  N          9.2830   -1.2490   20.5080 N.am  401  T43401     -0.2272
     22  CAV        9.6920   -0.7960   21.7190 C.2   401  T43401      0.0966
     23  SAX        8.6720   -1.0400   23.0990 S.2   401  T43401     -0.0362
     24  CAW       11.0600   -0.3390   21.8880 C.3   401  T43401      0.1193
     25  CBB       11.8410   -1.2930   22.7860 C.3   401  T43401      0.0260
     26  CBC       13.3330   -1.0940   23.0660 C.3   401  T43401      0.0036
     27  CBD       14.1320   -0.0910   22.2150 C.3   401  T43401      0.0001
     28  CBE       14.1520   -2.3050   23.5420 C.3   401  T43401      0.0001
     29  CBA       12.2810   -0.5760   24.0920 C.3   401  T43401      0.0219
     30  CAZ       11.7770    0.7880   24.0360 C.3   401  T43401      0.0938
     31  NAY       11.1820    0.8900   22.5760 N.am  401  T43401     -0.2742
     32  CBF       10.7010    1.9660   21.9800 C.2   401  T43401      0.2457
     33  OBH       10.2840    1.9130   20.8300 O.2   401  T43401     -0.2730
     34  CBG       10.7710    3.2790   22.8070 C.3   401  T43401      0.1714
     35  CBP        9.3990    3.9360   23.1480 C.3   401  T43401      0.0269
     36  CBR        9.5830    5.0550   24.1730 C.3   401  T43401      0.0022
     37  CBS        8.4590    2.9370   23.8710 C.3   401  T43401      0.0022
     38  CBQ        8.7180    4.5360   21.8960 C.3   401  T43401      0.0022
     39  NBI       11.7330    4.1420   22.0980 N.am  401  T43401     -0.1908
     40  CBJ       12.8870    4.5480   22.7130 C.2   401  T43401      0.3371
     41  OBO       13.0720    4.4050   23.9320 O.2   401  T43401     -0.2642
     42  CBK       13.8670    5.3710   21.8080 C.3   401  T43401      0.4711
     43  FBM       13.6040    5.1300   20.4450 F     401  T43401     -0.1620
     44  FBN       15.2180    5.0560   22.0190 F     401  T43401     -0.1620
     45  FBL       13.6890    6.6930   22.0570 F     401  T43401     -0.1620
@<TRIPOS>BOND
     1    20    19    2
     2    19    18   am
     3    19    15    1
     4    18    17    1
     5    14    15    1
     6    14    13    1
     7    15    16    1
     8    12    11    2
     9    11    13    1
    10    11    10    1
    11    17    16    1
    12    13    21    1
    13    43    42    1
    14    21    22    1
    15    33    32    2
    16    10     9   ar
    17    10     1   ar
    18     9     8   ar
    19    22    24    1
    20    22    23    2
    21    42    44    1
    22    42    45    1
    23    42    40    1
    24    24    31    1
    25    24    25    1
    26    38    35    1
    27    32    31   am
    28    32    34    1
    29    39    40   am
    30    39    34    1
    31     1     2   ar
    32    27    26    1
    33    31    30    1
    34    40    41    2
    35    25    26    1
    36    25    29    1
    37    34    35    1
    38     8     2   ar
    39     8     7   ar
    40    26    28    1
    41    26    29    1
    42    35    37    1
    43    35    36    1
    44     2     3   ar
    45     7     6   ar
    46    30    29    1
    47     3     4    1
    48     3     5   ar
    49     6     5   ar
