@<TRIPOS>MOLECULE
/home/pku/3cl/gett_pdb/5RT0/5RT0_mol2/ligand/5RT0_4BL.pdb
 21 22 0 0 0
SMALL
GASTEIGER

@<TRIPOS>ATOM
      1  C1       -39.1830  -38.3130   17.8140 C.ar  201  4BL201      0.0629
      2  N2       -39.1380  -38.1750   16.5030 N.ar  201  4BL201     -0.3532
      3  C3       -40.4740  -38.5610   18.1820 C.ar  201  4BL201     -0.0275
      4  C4       -40.3680  -38.2710   15.9740 C.ar  201  4BL201      0.0472
      5  C5       -38.0210  -38.3840   18.7860 C.2   201  4BL201      0.0878
      6  C6       -41.2300  -38.5090   17.0100 C.ar  201  4BL201      0.0003
      7  C7       -40.8750  -38.1820   14.6490 C.ar  201  4BL201     -0.0349
      8  O8       -38.1350  -38.3170   20.0290 O.co2 201  4BL201     -0.5431
      9  C9       -42.5930  -38.6620   16.7890 C.ar  201  4BL201     -0.0523
     10  O10      -36.9150  -38.6890   18.3260 O.co2 201  4BL201     -0.5431
     11  C11      -42.2500  -38.3370   14.4410 C.ar  201  4BL201     -0.0485
     12  C12      -43.0920  -38.5660   15.5060 C.ar  201  4BL201     -0.0582
     13  C13      -42.8910  -38.2420   13.0500 C.3   201  4BL201     -0.0396
     14  H3       -40.7900  -38.7110   19.0440 H     201  4BL201      0.0645
     15  H7       -40.3030  -38.0190   13.9340 H     201  4BL201      0.0641
     16  H9       -43.1680  -38.8190   17.5030 H     201  4BL201      0.0624
     17  H12      -44.0060  -38.6600   15.3590 H     201  4BL201      0.0620
     18  H13      -43.4800  -37.4720   13.0160 H     201  4BL201      0.0278
     19 H13A      -43.4040  -39.0470   12.8780 H     201  4BL201      0.0278
     20 H13B      -42.1960  -38.1550   12.3810 H     201  4BL201      0.0278
     21  HN2      -38.4190  -38.0440   16.0490 H     201  4BL201      0.1659
@<TRIPOS>UNITY_ATOM_ATTR
8 1
charge -1
@<TRIPOS>BOND
     1    20    13    1
     2    19    13    1
     3    18    13    1
     4    13    11    1
     5    15     7    1
     6    11     7   ar
     7    11    12   ar
     8     7     4   ar
     9    17    12    1
    10    12     9   ar
    11     4     2   ar
    12     4     6   ar
    13    21     2    1
    14     2     1   ar
    15     9     6   ar
    16     9    16    1
    17     6     3   ar
    18     1     3   ar
    19     1     5    1
    20     3    14    1
    21    10     5   ar
    22     5     8   ar
