WN1
  -OEChem-02242320043D

 30 31  0     0  0  0  0  0  0999 V2000
   -2.7460    1.3250   -0.4950 C   0  0  0  0  0  0  0  0  0  0  0  0
   -5.0300    0.8870    0.0770 C   0  0  0  0  0  0  0  0  0  0  0  0
   -3.4060   -0.8650    0.2470 C   0  0  0  0  0  0  0  0  0  0  0  0
    6.0310    0.5770    0.3060 C   0  0  0  0  0  0  0  0  0  0  0  0
    3.6790    0.2950    0.1040 C   0  0  0  0  0  0  0  0  0  0  0  0
    3.9240   -1.0330   -0.2170 C   0  0  0  0  0  0  0  0  0  0  0  0
    2.8730   -1.8890   -0.4890 C   0  0  0  0  0  0  0  0  0  0  0  0
    1.5730   -1.4290   -0.4420 C   0  0  0  0  0  0  0  0  0  0  0  0
    1.3160   -0.0950   -0.1200 C   0  0  0  0  0  0  0  0  0  0  0  0
    2.3780    0.7680    0.1540 C   0  0  0  0  0  0  0  0  0  0  0  0
   -0.0750    0.4010   -0.0690 C   0  0  0  0  0  0  0  0  0  0  0  0
   -2.4190    0.0100   -0.1940 C   0  0  0  0  0  0  0  0  0  0  0  0
   -4.0500    1.7610   -0.3560 C   0  0  0  0  0  0  0  0  0  0  0  0
   -4.7110   -0.4250    0.3730 C   0  0  0  0  0  0  0  0  0  0  0  0
   -3.0920   -2.1460    0.5410 F   0  0  0  0  0  0  0  0  0  0  0  0
   -1.0990   -0.4340   -0.3330 N   0  0  0  0  0  0  0  0  0  0  0  0
    4.7160    1.1310    0.3750 O   0  0  0  0  0  0  0  0  0  0  0  0
   -0.2960    1.5630    0.2120 O   0  0  0  0  0  0  0  0  0  0  0  0
   -1.9810    2.0080   -0.8330 H   0  0  0  0  0  0  0  0  0  0  0  0
   -6.0490    1.2320    0.1840 H   0  0  0  0  0  0  0  0  0  0  0  0
    6.2140    0.2010   -0.7010 H   0  0  0  0  0  0  0  0  0  0  0  0
    6.7630    1.3480    0.5440 H   0  0  0  0  0  0  0  0  0  0  0  0
    6.1190   -0.2410    1.0210 H   0  0  0  0  0  0  0  0  0  0  0  0
    4.9390   -1.3990   -0.2560 H   0  0  0  0  0  0  0  0  0  0  0  0
    3.0700   -2.9210   -0.7390 H   0  0  0  0  0  0  0  0  0  0  0  0
    0.7540   -2.1000   -0.6550 H   0  0  0  0  0  0  0  0  0  0  0  0
    2.1860    1.8010    0.4040 H   0  0  0  0  0  0  0  0  0  0  0  0
   -4.3030    2.7850   -0.5860 H   0  0  0  0  0  0  0  0  0  0  0  0
   -5.4780   -1.1030    0.7160 H   0  0  0  0  0  0  0  0  0  0  0  0
   -0.9210   -1.3440   -0.6210 H   0  0  0  0  0  0  0  0  0  0  0  0
  4 17  1  0  0  0  0
  5 17  1  0  0  0  0
  5 10  2  0  0  0  0
  5  6  1  0  0  0  0
  9 10  1  0  0  0  0
  6  7  2  0  0  0  0
  3 15  1  0  0  0  0
  8  9  2  0  0  0  0
  9 11  1  0  0  0  0
 11 16  1  0  0  0  0
 12 16  1  0  0  0  0
  7  8  1  0  0  0  0
  3 12  2  0  0  0  0
  3 14  1  0  0  0  0
 11 18  2  0  0  0  0
  1 12  1  0  0  0  0
  2 14  2  0  0  0  0
  1 13  2  0  0  0  0
  2 13  1  0  0  0  0
  1 19  1  0  0  0  0
  2 20  1  0  0  0  0
  4 21  1  0  0  0  0
  4 22  1  0  0  0  0
  4 23  1  0  0  0  0
  6 24  1  0  0  0  0
  7 25  1  0  0  0  0
  8 26  1  0  0  0  0
 10 27  1  0  0  0  0
 13 28  1  0  0  0  0
 14 29  1  0  0  0  0
 16 30  1  0  0  0  0
M  END
> <OPENEYE_ISO_SMILES>
COc1cccc(c1)C(=O)Nc2ccccc2F

> <OPENEYE_INCHI>
InChI=1S/C14H12FNO2/c1-18-11-6-4-5-10(9-11)14(17)16-13-8-3-2-7-12(13)15/h2-9H,1H3,(H,16,17)

> <OPENEYE_INCHIKEY>
GIUMGIOTJZLCCG-UHFFFAOYSA-N

> <FORMULA>
C14H12FNO2

$$$$
