CMU
  -OEChem-02242320023D

 27 28  0     0  0  0  0  0  0999 V2000
    4.0800    4.7980   -1.1850 Cl  0  0  0  0  0  0  0  0  0  0  0  0
    2.8380    5.4000   -0.1520 C   0  0  0  0  0  0  0  0  0  0  0  0
    1.5600    4.9880   -0.1980 C   0  0  0  0  0  0  0  0  0  0  0  0
    1.0130    3.9660   -1.1280 C   0  0  0  0  0  0  0  0  0  0  0  0
    1.1350    2.6780   -0.4910 N   0  0  0  0  0  0  0  0  0  0  0  0
    0.2510    2.3090    0.6010 C   0  0  0  0  0  0  0  0  0  0  0  0
    0.8890    1.0140    1.1090 C   0  0  0  0  0  0  0  0  0  0  0  0
    1.5440    0.3850   -0.1220 C   0  0  0  0  0  0  0  0  0  0  0  0
    1.8580    1.6030   -0.9620 C   0  0  0  0  0  0  0  0  0  0  0  0
    2.6740    1.5110   -1.9560 N   0  0  0  0  0  0  0  0  0  0  0  0
    0.6240    5.5190    0.6650 N   0  0  0  0  0  0  0  0  0  0  0  0
    0.9010    6.4850    1.6180 C   0  0  0  0  0  0  0  0  0  0  0  0
    0.0440    6.9400    2.3750 O   0  0  0  0  0  0  0  0  0  0  0  0
    2.2300    6.9000    1.6520 N   0  0  0  0  0  0  0  0  0  0  0  0
    3.2520    6.4370    0.8360 C   0  0  0  0  0  0  0  0  0  0  0  0
    4.4090    6.8410    0.9140 O   0  0  0  0  0  0  0  0  0  0  0  0
    1.5840    3.9850   -2.0600 H   0  0  0  0  0  0  0  0  0  0  0  0
   -0.0360    4.1910   -1.3350 H   0  0  0  0  0  0  0  0  0  0  0  0
   -0.7600    2.1250    0.2240 H   0  0  0  0  0  0  0  0  0  0  0  0
    0.2150    3.0730    1.3830 H   0  0  0  0  0  0  0  0  0  0  0  0
    0.1640    0.3490    1.5870 H   0  0  0  0  0  0  0  0  0  0  0  0
    1.6630    1.2540    1.8490 H   0  0  0  0  0  0  0  0  0  0  0  0
    0.8420   -0.2510   -0.6700 H   0  0  0  0  0  0  0  0  0  0  0  0
    2.4450   -0.1800    0.1260 H   0  0  0  0  0  0  0  0  0  0  0  0
    2.7650    2.4280   -2.4050 H   0  0  0  0  0  0  0  0  0  0  0  0
   -0.3300    5.1780    0.5950 H   0  0  0  0  0  0  0  0  0  0  0  0
    2.4730    7.6090    2.3380 H   0  0  0  0  0  0  0  0  0  0  0  0
  1  2  1  0  0  0  0
  2  3  2  0  0  0  0
  2 15  1  0  0  0  0
  3  4  1  0  0  0  0
  3 11  1  0  0  0  0
  4  5  1  0  0  0  0
  4 17  1  0  0  0  0
  4 18  1  0  0  0  0
  5  6  1  0  0  0  0
  5  9  1  0  0  0  0
  6  7  1  0  0  0  0
  6 19  1  0  0  0  0
  6 20  1  0  0  0  0
  7  8  1  0  0  0  0
  7 21  1  0  0  0  0
  7 22  1  0  0  0  0
  8  9  1  0  0  0  0
  8 23  1  0  0  0  0
  8 24  1  0  0  0  0
  9 10  2  0  0  0  0
 10 25  1  0  0  0  0
 11 12  1  0  0  0  0
 12 13  2  0  0  0  0
 12 14  1  0  0  0  0
 14 15  1  0  0  0  0
 15 16  2  0  0  0  0
 11 26  1  0  0  0  0
 14 27  1  0  0  0  0
M  END
> <OPENEYE_ISO_SMILES>
[H]/N=C\1/CCCN1Cc2c(c(=O)[nH]c(=O)[nH]2)Cl

> <OPENEYE_INCHI>
InChI=1S/C9H11ClN4O2/c10-7-5(12-9(16)13-8(7)15)4-14-3-1-2-6(14)11/h11H,1-4H2,(H2,12,13,15,16)/b11-6-

> <OPENEYE_INCHIKEY>
QQHMKNYGKVVGCZ-WDZFZDKYSA-N

> <FORMULA>
C9H11ClN4O2

$$$$
