@<TRIPOS>MOLECULE
/home/pku/3cl/gett_pdb/5SOI/5SOI_mol2/ligand/5SOI_WVG.pdb
 37 39 0 0 0
SMALL
GASTEIGER

@<TRIPOS>ATOM
      1  C20      -46.8390  -29.0920    5.0040 C.ar  201  WVG201      0.0397
      2  C02      -43.0930  -32.3460    1.9560 C.2   201  WVG201      0.0871
      3  C04      -43.1660  -31.3510    0.8030 C.3   201  WVG201     -0.0037
      4  C05      -44.5930  -30.8700    0.5600 C.3   201  WVG201     -0.0432
      5  C06      -44.6580  -29.3100    0.5670 C.3   201  WVG201     -0.0278
      6  C07      -45.9270  -28.8340   -0.0560 C.3   201  WVG201     -0.0479
      7  C08      -46.7420  -27.9600    0.8330 C.3   201  WVG201     -0.0398
      8  C09      -47.0100  -28.5660    2.2040 C.3   201  WVG201      0.0015
      9  C11      -44.5370  -28.8390    2.0210 C.3   201  WVG201      0.0043
     10  C12      -45.6840  -29.1870    4.2030 C.3   201  WVG201      0.1875
     11  C14      -44.3790  -29.3180    6.0850 C.2   201  WVG201      0.1048
     12  C16      -46.6650  -29.1110    6.3650 C.ar  201  WVG201      0.1286
     13  C18      -48.8130  -28.9100    6.0600 C.ar  201  WVG201      0.0038
     14  C19      -48.2310  -28.9660    4.8100 C.ar  201  WVG201     -0.0355
     15  N10      -45.7810  -29.1910    2.7530 N.3   201  WVG201     -0.2712
     16  N13      -44.4900  -29.3020    4.7690 N.2   201  WVG201     -0.2432
     17  N15      -45.4330  -29.2270    6.8580 N.pl3 201  WVG201     -0.1859
     18  N17      -47.8550  -29.0020    6.9570 N.ar  201  WVG201     -0.3479
     19  O01      -43.4020  -33.5520    1.7670 O.co2 201  WVG201     -0.8476
     20  O03      -42.7280  -31.9540    3.0920 O.co2 201  WVG201     -0.3090
     21 H042      -42.8300  -31.7640   -0.0040 H     201  WVG201      0.0333
     22 H041      -42.6060  -30.5870    1.0100 H     201  WVG201      0.0333
     23 H052      -45.1740  -31.2230    1.2580 H     201  WVG201      0.0272
     24 H051      -44.8920  -31.2100   -0.2980 H     201  WVG201      0.0272
     25 H061      -43.9120  -28.9590    0.0560 H     201  WVG201      0.0313
     26 H071      -45.7100  -28.3270   -0.8490 H     201  WVG201      0.0269
     27 H072      -46.4630  -29.6020   -0.3010 H     201  WVG201      0.0269
     28 H082      -47.5910  -27.7920    0.4190 H     201  WVG201      0.0278
     29 H081      -46.2770  -27.1190    0.9700 H     201  WVG201      0.0278
     30 H092      -47.7070  -29.2510    2.1500 H     201  WVG201      0.0427
     31 H091      -47.3050  -27.8410    2.7800 H     201  WVG201      0.0427
     32 H112      -44.3920  -27.8800    2.0360 H     201  WVG201      0.0430
     33 H111      -43.7840  -29.2860    2.4280 H     201  WVG201      0.0430
     34 H141      -43.5420  -29.3900    6.4800 H     201  WVG201      0.1015
     35 H181      -49.7140  -28.8340    6.2250 H     201  WVG201      0.0807
     36 H191      -48.6660  -28.9100    3.9850 H     201  WVG201      0.0637
     37 H171      -47.9750  -29.0030    7.8010 H     201  WVG201      0.1666
@<TRIPOS>UNITY_ATOM_ATTR
19 1
charge -1
@<TRIPOS>BOND
     1    26     6    1
     2    27     6    1
     3    24     4    1
     4     6     5    1
     5     6     7    1
     6    21     3    1
     7    25     5    1
     8    28     7    1
     9     4     5    1
    10     4     3    1
    11     4    23    1
    12     5     9    1
    13     3    22    1
    14     3     2    1
    15     7    29    1
    16     7     8    1
    17    19     2   ar
    18     2    20   ar
    19     9    32    1
    20     9    33    1
    21     9    15    1
    22    30     8    1
    23     8    15    1
    24     8    31    1
    25    15    10    1
    26    36    14    1
    27    10    16    1
    28    10     1    1
    29    16    11    2
    30    14     1   ar
    31    14    13   ar
    32     1    12   ar
    33    13    35    1
    34    13    18   ar
    35    11    34    1
    36    11    17    1
    37    12    17    1
    38    12    18   ar
    39    18    37    1
