WVM
  -OEChem-02242320043D

 44 46  0     1  0  0  0  0  0999 V2000
   -1.5000    3.0860   -0.4650 C   0  0  0  0  0  0  0  0  0  0  0  0
    0.7470    0.4770    0.4850 N   0  0  2  0  0  0  0  0  0  0  0  0
    1.9130    1.4010    0.4710 C   0  0  0  0  0  0  0  0  0  0  0  0
    4.4270    1.1020   -0.1040 C   0  0  0  0  0  0  0  0  0  0  0  0
    3.7810   -0.0140    1.5870 C   0  0  0  0  0  0  0  0  0  0  0  0
    1.0520   -0.5820   -0.5030 C   0  0  0  0  0  0  0  0  0  0  0  0
    3.0890   -2.0010   -0.1740 C   0  0  0  0  0  0  0  0  0  0  0  0
   -5.6930   -2.8070    0.2180 C   0  0  0  0  0  0  0  0  0  0  0  0
   -5.5810   -1.3150   -0.1020 C   0  0  2  0  0  0  0  0  0  0  0  0
   -4.1210   -0.8750    0.0240 C   0  0  0  0  0  0  0  0  0  0  0  0
   -2.7790    1.1820   -0.2330 C   0  0  0  0  0  0  0  0  0  0  0  0
   -1.6350    0.4660    0.1060 C   0  0  0  0  0  0  0  0  0  0  0  0
   -0.4210    1.1450    0.1530 C   0  0  0  0  0  0  0  0  0  0  0  0
    3.1090    0.4510    0.2990 C   0  0  0  0  0  0  0  0  0  0  0  0
    4.7530    1.1660    1.4000 C   0  0  0  0  0  0  0  0  0  0  0  0
    2.5880   -0.6540   -0.6290 C   0  0  2  0  0  0  0  0  0  0  0  0
    2.9830   -0.4080   -1.9480 F   0  0  0  0  0  0  0  0  0  0  0  0
   -4.0130    0.5540   -0.2820 N   0  0  0  0  0  0  0  0  0  0  0  0
   -0.3960    2.4440   -0.1430 N   0  0  0  0  0  0  0  0  0  0  0  0
   -2.6700    2.4810   -0.5090 N   0  0  0  0  0  0  0  0  0  0  0  0
   -6.3840   -0.5700    0.8150 O   0  0  0  0  0  0  0  0  0  0  0  0
    4.3770   -2.3320   -0.3520 O   0  0  0  0  0  0  0  0  0  0  0  0
    2.3300   -2.7820    0.3500 O   0  0  0  0  0  0  0  0  0  0  0  0
   -1.4460    4.1400   -0.6940 H   0  0  0  0  0  0  0  0  0  0  0  0
    1.8460    2.0920   -0.3700 H   0  0  0  0  0  0  0  0  0  0  0  0
    1.9830    1.9470    1.4110 H   0  0  0  0  0  0  0  0  0  0  0  0
    5.0870    0.4430   -0.6680 H   0  0  0  0  0  0  0  0  0  0  0  0
    4.3070    2.0810   -0.5700 H   0  0  0  0  0  0  0  0  0  0  0  0
    3.1470    0.0760    2.4690 H   0  0  0  0  0  0  0  0  0  0  0  0
    4.2580   -0.9910    1.5030 H   0  0  0  0  0  0  0  0  0  0  0  0
    0.6620   -1.5380   -0.1550 H   0  0  0  0  0  0  0  0  0  0  0  0
    0.6090   -0.3290   -1.4670 H   0  0  0  0  0  0  0  0  0  0  0  0
   -6.7330   -3.1210    0.1270 H   0  0  0  0  0  0  0  0  0  0  0  0
   -5.0800   -3.3750   -0.4820 H   0  0  0  0  0  0  0  0  0  0  0  0
   -5.3450   -2.9880    1.2350 H   0  0  0  0  0  0  0  0  0  0  0  0
   -5.9280   -1.1340   -1.1190 H   0  0  0  0  0  0  0  0  0  0  0  0
   -3.7730   -1.0550    1.0410 H   0  0  0  0  0  0  0  0  0  0  0  0
   -3.5080   -1.4430   -0.6750 H   0  0  0  0  0  0  0  0  0  0  0  0
   -1.6890   -0.5880    0.3360 H   0  0  0  0  0  0  0  0  0  0  0  0
    5.7880    0.9190    1.6320 H   0  0  0  0  0  0  0  0  0  0  0  0
    4.4180    2.0860    1.8800 H   0  0  0  0  0  0  0  0  0  0  0  0
   -4.8060    1.0600   -0.5190 H   0  0  0  0  0  0  0  0  0  0  0  0
   -7.3230   -0.7970    0.7900 H   0  0  0  0  0  0  0  0  0  0  0  0
    4.6520   -3.2070   -0.0440 H   0  0  0  0  0  0  0  0  0  0  0  0
  7 23  2  0  0  0  0
  7 22  1  0  0  0  0
  7 16  1  0  0  0  0
  5 15  1  0  0  0  0
  5 14  1  0  0  0  0
  4 15  1  0  0  0  0
 16 17  1  0  0  0  0
 14 16  1  0  0  0  0
  6 16  1  0  0  0  0
  4 14  1  0  0  0  0
  3 14  1  0  0  0  0
  2  6  1  0  0  0  0
  2  3  1  0  0  0  0
  2 13  1  0  0  0  0
 12 13  2  0  0  0  0
 13 19  1  0  0  0  0
 11 12  1  0  0  0  0
  1 19  2  0  0  0  0
  9 21  1  0  0  0  0
  9 10  1  0  0  0  0
  8  9  1  0  0  0  0
 10 18  1  0  0  0  0
 11 18  1  0  0  0  0
 11 20  2  0  0  0  0
  1 20  1  0  0  0  0
  1 24  1  0  0  0  0
  3 25  1  0  0  0  0
  3 26  1  0  0  0  0
  4 27  1  0  0  0  0
  4 28  1  0  0  0  0
  5 29  1  0  0  0  0
  5 30  1  0  0  0  0
  6 31  1  0  0  0  0
  6 32  1  0  0  0  0
  8 33  1  0  0  0  0
  8 34  1  0  0  0  0
  8 35  1  0  0  0  0
  9 36  1  0  0  0  0
 10 37  1  0  0  0  0
 10 38  1  0  0  0  0
 12 39  1  0  0  0  0
 15 40  1  0  0  0  0
 15 41  1  0  0  0  0
 18 42  1  0  0  0  0
 21 43  1  0  0  0  0
 22 44  1  0  0  0  0
M  END
> <OPENEYE_ISO_SMILES>
C[C@H](CNc1cc(ncn1)[N@]2C[C@@](C3(C2)CCC3)(C(=O)O)F)O

> <OPENEYE_INCHI>
InChI=1S/C15H21FN4O3/c1-10(21)6-17-11-5-12(19-9-18-11)20-7-14(3-2-4-14)15(16,8-20)13(22)23/h5,9-10,21H,2-4,6-8H2,1H3,(H,22,23)(H,17,18,19)/t10-,15+/m1/s1

> <OPENEYE_INCHIKEY>
VUGBTOAPDMYPIQ-BMIGLBTASA-N

> <FORMULA>
C15H21FN4O3

$$$$
