QL6
  -OEChem-02242320033D

 49 52  0     0  0  0  0  0  0999 V2000
   -1.7580    2.5550   -1.2290 C   0  0  0  0  0  0  0  0  0  0  0  0
   -0.7990    1.6180   -0.8340 C   0  0  0  0  0  0  0  0  0  0  0  0
    0.6280    1.9920   -0.7930 C   0  0  0  0  0  0  0  0  0  0  0  0
    2.9680    1.4590   -0.3710 C   0  0  0  0  0  0  0  0  0  0  0  0
    3.7840    0.2760    0.0840 C   0  0  0  0  0  0  0  0  0  0  0  0
    4.3560   -0.7140   -0.7500 C   0  0  0  0  0  0  0  0  0  0  0  0
    4.3610   -0.9180   -2.1360 C   0  0  0  0  0  0  0  0  0  0  0  0
   -3.4800    0.9190   -0.9000 C   0  0  0  0  0  0  0  0  0  0  0  0
   -3.0890    2.2040   -1.2600 C   0  0  0  0  0  0  0  0  0  0  0  0
    3.7180    0.7500    2.5530 C   0  0  0  0  0  0  0  0  0  0  0  0
    4.1090   -0.0270    1.3690 C   0  0  0  0  0  0  0  0  0  0  0  0
    5.0280   -1.6220    0.0910 C   0  0  0  0  0  0  0  0  0  0  0  0
    5.6880   -2.7130   -0.4690 C   0  0  0  0  0  0  0  0  0  0  0  0
    5.6760   -2.8930   -1.8340 C   0  0  0  0  0  0  0  0  0  0  0  0
    5.0160   -1.9940   -2.6610 C   0  0  0  0  0  0  0  0  0  0  0  0
   -5.3190   -0.3100   -0.0340 C   0  0  0  0  0  0  0  0  0  0  0  0
   -7.1270   -1.6850    0.8450 C   0  0  0  0  0  0  0  0  0  0  0  0
   -8.5290   -1.4200    1.3990 C   0  0  0  0  0  0  0  0  0  0  0  0
   -8.3020   -2.5630    0.4080 C   0  0  0  0  0  0  0  0  0  0  0  0
   -2.5270   -0.0200   -0.5170 C   0  0  0  0  0  0  0  0  0  0  0  0
   -1.1950    0.3250   -0.4780 C   0  0  0  0  0  0  0  0  0  0  0  0
    4.8650   -1.1840    1.3840 N   0  0  0  0  0  0  0  0  0  0  0  0
    1.5510    1.0870   -0.4120 N   0  0  0  0  0  0  0  0  0  0  0  0
   -4.8290    0.5670   -0.9330 N   0  0  0  0  0  0  0  0  0  0  0  0
   -6.5950   -0.7320   -0.1320 N   0  0  0  0  0  0  0  0  0  0  0  0
    3.0480    1.7560    2.4250 O   0  0  0  0  0  0  0  0  0  0  0  0
    4.1020    0.3470    3.7810 O   0  0  0  0  0  0  0  0  0  0  0  0
    0.9710    3.1170   -1.1020 O   0  0  0  0  0  0  0  0  0  0  0  0
   -4.6090   -0.7200    0.8640 O   0  0  0  0  0  0  0  0  0  0  0  0
   -1.4550    3.5540   -1.5040 H   0  0  0  0  0  0  0  0  0  0  0  0
    3.1060    2.2850    0.3260 H   0  0  0  0  0  0  0  0  0  0  0  0
    3.2920    1.7630   -1.3650 H   0  0  0  0  0  0  0  0  0  0  0  0
    3.8470   -0.2260   -2.7870 H   0  0  0  0  0  0  0  0  0  0  0  0
   -3.8300    2.9280   -1.5650 H   0  0  0  0  0  0  0  0  0  0  0  0
    6.2070   -3.4160    0.1660 H   0  0  0  0  0  0  0  0  0  0  0  0
    6.1890   -3.7400   -2.2660 H   0  0  0  0  0  0  0  0  0  0  0  0
    5.0190   -2.1490   -3.7300 H   0  0  0  0  0  0  0  0  0  0  0  0
   -6.3940   -2.1260    1.5200 H   0  0  0  0  0  0  0  0  0  0  0  0
   -8.7170   -1.6870    2.4390 H   0  0  0  0  0  0  0  0  0  0  0  0
   -9.0540   -0.5370    1.0380 H   0  0  0  0  0  0  0  0  0  0  0  0
   -8.6780   -2.4310   -0.6070 H   0  0  0  0  0  0  0  0  0  0  0  0
   -8.3410   -3.5810    0.7950 H   0  0  0  0  0  0  0  0  0  0  0  0
   -2.8340   -1.0170   -0.2380 H   0  0  0  0  0  0  0  0  0  0  0  0
   -0.4560   -0.4010   -0.1730 H   0  0  0  0  0  0  0  0  0  0  0  0
    5.2220   -1.6150    2.1760 H   0  0  0  0  0  0  0  0  0  0  0  0
    1.2780    0.1900   -0.1650 H   0  0  0  0  0  0  0  0  0  0  0  0
   -5.4140    0.9530   -1.6030 H   0  0  0  0  0  0  0  0  0  0  0  0
   -7.1610   -0.4050   -0.8480 H   0  0  0  0  0  0  0  0  0  0  0  0
    3.8200    0.8900    4.5290 H   0  0  0  0  0  0  0  0  0  0  0  0
 10 26  2  0  0  0  0
 10 27  1  0  0  0  0
 10 11  1  0  0  0  0
 11 22  1  0  0  0  0
 12 22  1  0  0  0  0
 12 13  2  0  0  0  0
 13 14  1  0  0  0  0
 14 15  2  0  0  0  0
  7 15  1  0  0  0  0
  6  7  2  0  0  0  0
  5  6  1  0  0  0  0
  4  5  1  0  0  0  0
  4 23  1  0  0  0  0
  3 23  1  0  0  0  0
  3 28  2  0  0  0  0
  2  3  1  0  0  0  0
  1  2  2  0  0  0  0
  1  9  1  0  0  0  0
  8  9  2  0  0  0  0
 16 24  1  0  0  0  0
 16 29  2  0  0  0  0
 16 25  1  0  0  0  0
 17 25  1  0  0  0  0
 17 18  1  0  0  0  0
 18 19  1  0  0  0  0
  8 24  1  0  0  0  0
  8 20  1  0  0  0  0
 20 21  2  0  0  0  0
  5 11  2  0  0  0  0
  6 12  1  0  0  0  0
  2 21  1  0  0  0  0
 17 19  1  0  0  0  0
  1 30  1  0  0  0  0
  4 31  1  0  0  0  0
  4 32  1  0  0  0  0
  7 33  1  0  0  0  0
  9 34  1  0  0  0  0
 13 35  1  0  0  0  0
 14 36  1  0  0  0  0
 15 37  1  0  0  0  0
 17 38  1  0  0  0  0
 18 39  1  0  0  0  0
 18 40  1  0  0  0  0
 19 41  1  0  0  0  0
 19 42  1  0  0  0  0
 20 43  1  0  0  0  0
 21 44  1  0  0  0  0
 22 45  1  0  0  0  0
 23 46  1  0  0  0  0
 24 47  1  0  0  0  0
 25 48  1  0  0  0  0
 27 49  1  0  0  0  0
M  END
> <OPENEYE_ISO_SMILES>
c1ccc2c(c1)c(c([nH]2)C(=O)O)CNC(=O)c3ccc(cc3)NC(=O)NC4CC4

> <OPENEYE_INCHI>
InChI=1S/C21H20N4O4/c26-19(12-5-7-13(8-6-12)23-21(29)24-14-9-10-14)22-11-16-15-3-1-2-4-17(15)25-18(16)20(27)28/h1-8,14,25H,9-11H2,(H,22,26)(H,27,28)(H2,23,24,29)

> <OPENEYE_INCHIKEY>
IKFUIKKYPURVDW-UHFFFAOYSA-N

> <FORMULA>
C21H20N4O4

$$$$
