MODEL 1
REMARK VINA RESULT:    -7.826      0.000      0.000
REMARK INTER + INTRA:         -14.205
REMARK INTER:                 -12.673
REMARK INTRA:                  -1.532
REMARK UNBOUND:                -1.804
REMARK SMILES [H]/N=C/C(CC1CCNC1=O)NC(=O)C1C2C(CN1C(=O)C(NC(=O)C(F)(F)F)C(C)(C)C)C2(C)C
REMARK SMILES IDX 18 1 15 2 17 3 16 4 34 5 35 6 36 7 19 8 13 9 12 10 14 12
REMARK SMILES IDX 4 13 5 14 6 15 10 16 11 17 9 18 8 19 7 21 3 22 2 23 1 24
REMARK SMILES IDX 20 25 21 26 22 27 23 28 24 29 25 31 26 32 27 33 29 34 28 35
REMARK SMILES IDX 30 36 31 37 32 38 33 39
REMARK H PARENT 12 11 9 20 23 30
REMARK Flexibility Score: inf
ROOT
ATOM      1  C   UNL     1      10.479   1.020  24.334  1.00  0.00     0.125 C 
ATOM      2  C   UNL     1      10.335   0.006  22.219  1.00  0.00     0.178 C 
ATOM      3  C   UNL     1      11.445  -0.182  24.399  1.00  0.00     0.021 C 
ATOM      4  C   UNL     1      11.347  -0.849  23.012  1.00  0.00     0.033 C 
ATOM      5  C   UNL     1      12.678  -0.166  23.492  1.00  0.00    -0.025 C 
ATOM      6  C   UNL     1      13.064   1.162  22.840  1.00  0.00     0.012 C 
ATOM      7  C   UNL     1      13.846  -1.082  23.863  1.00  0.00     0.012 C 
ATOM      8  N   UNL     1      10.369   1.333  22.890  1.00  0.00    -0.328 N 
ENDROOT
BRANCH   2   9
ATOM      9  C   UNL     1       8.954  -0.591  22.307  1.00  0.00     0.243 C 
ATOM     10  N   UNL     1       8.011  -0.239  21.410  1.00  0.00    -0.347 N 
ATOM     11  H   UNL     1       8.221   0.398  20.710  1.00  0.00     0.164 HD
ATOM     12  O   UNL     1       8.692  -1.387  23.183  1.00  0.00    -0.273 OA
BRANCH  10  13
ATOM     13  C   UNL     1       6.667  -0.820  21.495  1.00  0.00     0.123 C 
BRANCH  13  14
ATOM     14  C   UNL     1       5.651   0.163  20.911  1.00  0.00     0.044 C 
BRANCH  14  15
ATOM     15  C   UNL     1       6.379   1.207  20.063  1.00  0.00     0.082 C 
ATOM     16  C   UNL     1       5.836   1.215  18.651  1.00  0.00     0.223 C 
ATOM     17  O   UNL     1       6.109   0.399  17.797  1.00  0.00    -0.275 OA
ATOM     18  N   UNL     1       5.009   2.262  18.480  1.00  0.00    -0.356 N 
ATOM     19  C   UNL     1       4.891   3.054  19.709  1.00  0.00     0.116 C 
ATOM     20  H   UNL     1       4.552   2.467  17.650  1.00  0.00     0.163 HD
ATOM     21  C   UNL     1       6.088   2.631  20.589  1.00  0.00     0.035 C 
ENDBRANCH  14  15
ENDBRANCH  13  14
BRANCH  13  22
ATOM     22  C   UNL     1       6.628  -2.108  20.714  1.00  0.00     0.098 C 
ATOM     23  N   UNL     1       5.897  -2.199  19.667  1.00  0.00    -0.311 NA
ATOM     24  H   UNL     1       5.873  -3.029  19.166  1.00  0.00     0.187 HD
ENDBRANCH  13  22
ENDBRANCH  10  13
ENDBRANCH   2   9
BRANCH   8  25
ATOM     25  C   UNL     1      10.324   2.552  22.315  1.00  0.00     0.246 C 
ATOM     26  O   UNL     1      10.160   2.652  21.117  1.00  0.00    -0.272 OA
BRANCH  25  27
ATOM     27  C   UNL     1      10.478   3.790  23.161  1.00  0.00     0.177 C 
BRANCH  27  28
ATOM     28  N   UNL     1      11.244   4.795  22.420  1.00  0.00    -0.336 N 
ATOM     29  C   UNL     1      12.338   5.353  22.975  1.00  0.00     0.326 C 
ATOM     30  H   UNL     1      10.963   5.060  21.530  1.00  0.00     0.164 HD
ATOM     31  O   UNL     1      12.688   5.023  24.089  1.00  0.00    -0.265 OA
BRANCH  29  32
ATOM     32  C   UNL     1      13.125   6.387  22.213  1.00  0.00     0.471 C 
ATOM     33  F   UNL     1      12.399   6.790  21.087  1.00  0.00    -0.162 F 
ATOM     34  F   UNL     1      14.347   5.838  21.808  1.00  0.00    -0.162 F 
ATOM     35  F   UNL     1      13.361   7.494  23.036  1.00  0.00    -0.162 F 
ENDBRANCH  29  32
ENDBRANCH  27  28
BRANCH  27  36
ATOM     36  C   UNL     1       9.095   4.350  23.500  1.00  0.00    -0.009 C 
ATOM     37  C   UNL     1       8.695   5.392  22.453  1.00  0.00     0.013 C 
ATOM     38  C   UNL     1       9.135   5.005  24.882  1.00  0.00     0.013 C 
ATOM     39  C   UNL     1       8.071   3.212  23.504  1.00  0.00     0.013 C 
ENDBRANCH  27  36
ENDBRANCH  25  27
ENDBRANCH   8  25
TORSDOF 10
ENDMDL
MODEL 2
REMARK VINA RESULT:    -7.157      3.328      5.860
REMARK INTER + INTRA:         -13.144
REMARK INTER:                 -11.991
REMARK INTRA:                  -1.153
REMARK UNBOUND:                -1.804
REMARK SMILES [H]/N=C/C(CC1CCNC1=O)NC(=O)C1C2C(CN1C(=O)C(NC(=O)C(F)(F)F)C(C)(C)C)C2(C)C
REMARK SMILES IDX 18 1 15 2 17 3 16 4 34 5 35 6 36 7 19 8 13 9 12 10 14 12
REMARK SMILES IDX 4 13 5 14 6 15 10 16 11 17 9 18 8 19 7 21 3 22 2 23 1 24
REMARK SMILES IDX 20 25 21 26 22 27 23 28 24 29 25 31 26 32 27 33 29 34 28 35
REMARK SMILES IDX 30 36 31 37 32 38 33 39
REMARK H PARENT 12 11 9 20 23 30
REMARK Flexibility Score: inf
ROOT
ATOM      1  C   UNL     1       9.170  -0.226  21.026  1.00  0.00     0.125 C 
ATOM      2  C   UNL     1       7.994  -0.969  22.920  1.00  0.00     0.178 C 
ATOM      3  C   UNL     1       7.680  -0.032  20.674  1.00  0.00     0.021 C 
ATOM      4  C   UNL     1       6.909  -0.525  21.916  1.00  0.00     0.033 C 
ATOM      5  C   UNL     1       6.873   0.985  21.485  1.00  0.00    -0.025 C 
ATOM      6  C   UNL     1       7.649   1.983  22.346  1.00  0.00     0.012 C 
ATOM      7  C   UNL     1       5.574   1.513  20.873  1.00  0.00     0.012 C 
ATOM      8  N   UNL     1       9.208  -0.215  22.508  1.00  0.00    -0.328 N 
ENDROOT
BRANCH   2   9
ATOM      9  C   UNL     1       8.237  -2.453  22.814  1.00  0.00     0.243 C 
ATOM     10  N   UNL     1       7.238  -3.274  22.431  1.00  0.00    -0.347 N 
ATOM     11  H   UNL     1       6.364  -2.909  22.225  1.00  0.00     0.164 HD
ATOM     12  O   UNL     1       9.331  -2.909  23.073  1.00  0.00    -0.273 OA
BRANCH  10  13
ATOM     13  C   UNL     1       7.475  -4.717  22.328  1.00  0.00     0.123 C 
BRANCH  13  14
ATOM     14  C   UNL     1       7.547  -5.321  23.732  1.00  0.00     0.044 C 
BRANCH  14  15
ATOM     15  C   UNL     1       6.271  -4.977  24.502  1.00  0.00     0.082 C 
ATOM     16  C   UNL     1       5.627  -6.232  25.048  1.00  0.00     0.223 C 
ATOM     17  O   UNL     1       4.967  -7.013  24.397  1.00  0.00    -0.275 OA
ATOM     18  N   UNL     1       5.889  -6.352  26.361  1.00  0.00    -0.356 N 
ATOM     19  C   UNL     1       6.717  -5.241  26.843  1.00  0.00     0.116 C 
ATOM     20  H   UNL     1       5.570  -7.079  26.918  1.00  0.00     0.163 HD
ATOM     21  C   UNL     1       6.607  -4.144  25.761  1.00  0.00     0.035 C 
ENDBRANCH  14  15
ENDBRANCH  13  14
BRANCH  13  22
ATOM     22  C   UNL     1       6.346  -5.357  21.562  1.00  0.00     0.098 C 
ATOM     23  N   UNL     1       6.275  -6.631  21.474  1.00  0.00    -0.311 NA
ATOM     24  H   UNL     1       5.547  -7.042  20.980  1.00  0.00     0.187 HD
ENDBRANCH  13  22
ENDBRANCH  10  13
ENDBRANCH   2   9
BRANCH   8  25
ATOM     25  C   UNL     1      10.132   0.362  23.301  1.00  0.00     0.246 C 
ATOM     26  O   UNL     1       9.927   0.470  24.492  1.00  0.00    -0.272 OA
BRANCH  25  27
ATOM     27  C   UNL     1      11.420   0.873  22.709  1.00  0.00     0.177 C 
BRANCH  27  28
ATOM     28  N   UNL     1      11.762   2.159  23.320  1.00  0.00    -0.336 N 
ATOM     29  C   UNL     1      11.538   3.306  22.649  1.00  0.00     0.326 C 
ATOM     30  H   UNL     1      12.151   2.186  24.208  1.00  0.00     0.164 HD
ATOM     31  O   UNL     1      11.052   3.272  21.537  1.00  0.00    -0.265 OA
BRANCH  29  32
ATOM     32  C   UNL     1      11.889   4.629  23.278  1.00  0.00     0.471 C 
ATOM     33  F   UNL     1      13.190   4.571  23.790  1.00  0.00    -0.162 F 
ATOM     34  F   UNL     1      10.992   4.907  24.315  1.00  0.00    -0.162 F 
ATOM     35  F   UNL     1      11.814   5.639  22.313  1.00  0.00    -0.162 F 
ENDBRANCH  29  32
ENDBRANCH  27  28
BRANCH  27  36
ATOM     36  C   UNL     1      12.540  -0.134  22.979  1.00  0.00    -0.009 C 
ATOM     37  C   UNL     1      13.858   0.404  22.417  1.00  0.00     0.013 C 
ATOM     38  C   UNL     1      12.204  -1.465  22.302  1.00  0.00     0.013 C 
ATOM     39  C   UNL     1      12.679  -0.350  24.488  1.00  0.00     0.013 C 
ENDBRANCH  27  36
ENDBRANCH  25  27
ENDBRANCH   8  25
TORSDOF 10
ENDMDL
MODEL 3
REMARK VINA RESULT:    -6.870      3.347      6.958
REMARK INTER + INTRA:         -12.690
REMARK INTER:                 -11.991
REMARK INTRA:                  -0.699
REMARK UNBOUND:                -1.804
REMARK SMILES [H]/N=C/C(CC1CCNC1=O)NC(=O)C1C2C(CN1C(=O)C(NC(=O)C(F)(F)F)C(C)(C)C)C2(C)C
REMARK SMILES IDX 18 1 15 2 17 3 16 4 34 5 35 6 36 7 19 8 13 9 12 10 14 12
REMARK SMILES IDX 4 13 5 14 6 15 10 16 11 17 9 18 8 19 7 21 3 22 2 23 1 24
REMARK SMILES IDX 20 25 21 26 22 27 23 28 24 29 25 31 26 32 27 33 29 34 28 35
REMARK SMILES IDX 30 36 31 37 32 38 33 39
REMARK H PARENT 12 11 9 20 23 30
REMARK Flexibility Score: inf
ROOT
ATOM      1  C   UNL     1      12.270  -0.216  21.420  1.00  0.00     0.125 C 
ATOM      2  C   UNL     1      11.275   0.902  23.231  1.00  0.00     0.178 C 
ATOM      3  C   UNL     1      13.330  -0.248  22.541  1.00  0.00     0.021 C 
ATOM      4  C   UNL     1      12.677   0.490  23.729  1.00  0.00     0.033 C 
ATOM      5  C   UNL     1      13.013  -1.043  23.811  1.00  0.00    -0.025 C 
ATOM      6  C   UNL     1      11.842  -2.025  23.761  1.00  0.00     0.012 C 
ATOM      7  C   UNL     1      14.186  -1.461  24.700  1.00  0.00     0.012 C 
ATOM      8  N   UNL     1      10.979  -0.053  22.130  1.00  0.00    -0.328 N 
ENDROOT
BRANCH   2   9
ATOM      9  C   UNL     1      11.293   2.316  22.710  1.00  0.00     0.243 C 
ATOM     10  N   UNL     1      11.875   3.293  23.434  1.00  0.00    -0.347 N 
ATOM     11  H   UNL     1      12.281   3.087  24.290  1.00  0.00     0.164 HD
ATOM     12  O   UNL     1      10.785   2.574  21.639  1.00  0.00    -0.273 OA
BRANCH  10  13
ATOM     13  C   UNL     1      11.892   4.668  22.926  1.00  0.00     0.123 C 
BRANCH  13  14
ATOM     14  C   UNL     1      11.530   5.632  24.057  1.00  0.00     0.044 C 
BRANCH  14  15
ATOM     15  C   UNL     1      12.010   7.041  23.701  1.00  0.00     0.082 C 
ATOM     16  C   UNL     1      10.873   7.858  23.129  1.00  0.00     0.223 C 
ATOM     17  O   UNL     1      10.452   7.766  21.996  1.00  0.00    -0.275 OA
ATOM     18  N   UNL     1      10.400   8.706  24.059  1.00  0.00    -0.356 N 
ATOM     19  C   UNL     1      11.125   8.566  25.327  1.00  0.00     0.116 C 
ATOM     20  H   UNL     1       9.674   9.332  23.910  1.00  0.00     0.163 HD
ATOM     21  C   UNL     1      12.426   7.810  24.976  1.00  0.00     0.035 C 
ENDBRANCH  14  15
ENDBRANCH  13  14
BRANCH  13  22
ATOM     22  C   UNL     1      13.269   4.995  22.408  1.00  0.00     0.098 C 
ATOM     23  N   UNL     1      14.303   4.553  23.019  1.00  0.00    -0.311 NA
ATOM     24  H   UNL     1      15.190   4.764  22.685  1.00  0.00     0.187 HD
ENDBRANCH  13  22
ENDBRANCH  10  13
ENDBRANCH   2   9
BRANCH   8  25
ATOM     25  C   UNL     1       9.805  -0.649  21.845  1.00  0.00     0.246 C 
ATOM     26  O   UNL     1       9.774  -1.832  21.578  1.00  0.00    -0.272 OA
BRANCH  25  27
ATOM     27  C   UNL     1       8.530   0.154  21.858  1.00  0.00     0.177 C 
BRANCH  27  28
ATOM     28  N   UNL     1       7.843   0.001  20.573  1.00  0.00    -0.336 N 
ATOM     29  C   UNL     1       7.443   1.091  19.889  1.00  0.00     0.326 C 
ATOM     30  H   UNL     1       7.677  -0.884  20.214  1.00  0.00     0.164 HD
ATOM     31  O   UNL     1       7.650   2.199  20.338  1.00  0.00    -0.265 OA
BRANCH  29  32
ATOM     32  C   UNL     1       6.737   0.934  18.567  1.00  0.00     0.471 C 
ATOM     33  F   UNL     1       6.486  -0.421  18.330  1.00  0.00    -0.162 F 
ATOM     34  F   UNL     1       7.544   1.445  17.544  1.00  0.00    -0.162 F 
ATOM     35  F   UNL     1       5.526   1.634  18.599  1.00  0.00    -0.162 F 
ENDBRANCH  29  32
ENDBRANCH  27  28
BRANCH  27  36
ATOM     36  C   UNL     1       7.623  -0.348  22.984  1.00  0.00    -0.009 C 
ATOM     37  C   UNL     1       6.749   0.803  23.487  1.00  0.00     0.013 C 
ATOM     38  C   UNL     1       8.482  -0.877  24.133  1.00  0.00     0.013 C 
ATOM     39  C   UNL     1       6.729  -1.473  22.455  1.00  0.00     0.013 C 
ENDBRANCH  27  36
ENDBRANCH  25  27
ENDBRANCH   8  25
TORSDOF 10
ENDMDL
MODEL 4
REMARK VINA RESULT:    -6.843      2.245      3.659
REMARK INTER + INTRA:         -12.647
REMARK INTER:                 -11.567
REMARK INTRA:                  -1.080
REMARK UNBOUND:                -1.804
REMARK SMILES [H]/N=C/C(CC1CCNC1=O)NC(=O)C1C2C(CN1C(=O)C(NC(=O)C(F)(F)F)C(C)(C)C)C2(C)C
REMARK SMILES IDX 18 1 15 2 17 3 16 4 34 5 35 6 36 7 19 8 13 9 12 10 14 12
REMARK SMILES IDX 4 13 5 14 6 15 10 16 11 17 9 18 8 19 7 21 3 22 2 23 1 24
REMARK SMILES IDX 20 25 21 26 22 27 23 28 24 29 25 31 26 32 27 33 29 34 28 35
REMARK SMILES IDX 30 36 31 37 32 38 33 39
REMARK H PARENT 12 11 9 20 23 30
REMARK Flexibility Score: inf
ROOT
ATOM      1  C   UNL     1      10.636   1.129  24.435  1.00  0.00     0.125 C 
ATOM      2  C   UNL     1      10.361   0.004  22.391  1.00  0.00     0.178 C 
ATOM      3  C   UNL     1      11.566  -0.099  24.525  1.00  0.00     0.021 C 
ATOM      4  C   UNL     1      11.381  -0.840  23.184  1.00  0.00     0.033 C 
ATOM      5  C   UNL     1      12.754  -0.176  23.563  1.00  0.00    -0.025 C 
ATOM      6  C   UNL     1      13.150   1.100  22.819  1.00  0.00     0.012 C 
ATOM      7  C   UNL     1      13.909  -1.109  23.932  1.00  0.00     0.012 C 
ATOM      8  N   UNL     1      10.468   1.365  22.981  1.00  0.00    -0.328 N 
ENDROOT
BRANCH   2   9
ATOM      9  C   UNL     1       8.967  -0.540  22.575  1.00  0.00     0.243 C 
ATOM     10  N   UNL     1       8.764  -1.622  23.354  1.00  0.00    -0.347 N 
ATOM     11  H   UNL     1       9.515  -2.049  23.795  1.00  0.00     0.164 HD
ATOM     12  O   UNL     1       8.029  -0.005  22.023  1.00  0.00    -0.273 OA
BRANCH  10  13
ATOM     13  C   UNL     1       7.409  -2.150  23.534  1.00  0.00     0.123 C 
BRANCH  13  14
ATOM     14  C   UNL     1       7.480  -3.659  23.778  1.00  0.00     0.044 C 
BRANCH  14  15
ATOM     15  C   UNL     1       6.376  -4.357  22.982  1.00  0.00     0.082 C 
ATOM     16  C   UNL     1       6.669  -4.289  21.499  1.00  0.00     0.223 C 
ATOM     17  O   UNL     1       6.492  -3.315  20.800  1.00  0.00    -0.275 OA
ATOM     18  N   UNL     1       7.150  -5.469  21.068  1.00  0.00    -0.356 N 
ATOM     19  C   UNL     1       7.245  -6.438  22.166  1.00  0.00     0.116 C 
ATOM     20  H   UNL     1       7.400  -5.655  20.150  1.00  0.00     0.163 HD
ATOM     21  C   UNL     1       6.357  -5.871  23.296  1.00  0.00     0.035 C 
ENDBRANCH  14  15
ENDBRANCH  13  14
BRANCH  13  22
ATOM     22  C   UNL     1       6.761  -1.479  24.717  1.00  0.00     0.098 C 
ATOM     23  N   UNL     1       6.054  -0.427  24.547  1.00  0.00    -0.311 NA
ATOM     24  H   UNL     1       5.637   0.004  25.310  1.00  0.00     0.187 HD
ENDBRANCH  13  22
ENDBRANCH  10  13
ENDBRANCH   2   9
BRANCH   8  25
ATOM     25  C   UNL     1      10.434   2.550  22.341  1.00  0.00     0.246 C 
ATOM     26  O   UNL     1      10.784   2.623  21.182  1.00  0.00    -0.272 OA
BRANCH  25  27
ATOM     27  C   UNL     1       9.961   3.784  23.064  1.00  0.00     0.177 C 
BRANCH  27  28
ATOM     28  N   UNL     1      10.568   4.970  22.455  1.00  0.00    -0.336 N 
ATOM     29  C   UNL     1      11.655   5.536  23.018  1.00  0.00     0.326 C 
ATOM     30  H   UNL     1      10.189   5.349  21.647  1.00  0.00     0.164 HD
ATOM     31  O   UNL     1      12.129   5.062  24.029  1.00  0.00    -0.265 OA
BRANCH  29  32
ATOM     32  C   UNL     1      12.279   6.755  22.392  1.00  0.00     0.471 C 
ATOM     33  F   UNL     1      13.082   6.367  21.314  1.00  0.00    -0.162 F 
ATOM     34  F   UNL     1      13.064   7.418  23.342  1.00  0.00    -0.162 F 
ATOM     35  F   UNL     1      11.272   7.614  21.937  1.00  0.00    -0.162 F 
ENDBRANCH  29  32
ENDBRANCH  27  28
BRANCH  27  36
ATOM     36  C   UNL     1       8.437   3.882  22.962  1.00  0.00    -0.009 C 
ATOM     37  C   UNL     1       8.000   5.326  23.220  1.00  0.00     0.013 C 
ATOM     38  C   UNL     1       7.797   2.962  24.003  1.00  0.00     0.013 C 
ATOM     39  C   UNL     1       7.991   3.457  21.561  1.00  0.00     0.013 C 
ENDBRANCH  27  36
ENDBRANCH  25  27
ENDBRANCH   8  25
TORSDOF 10
ENDMDL
MODEL 5
REMARK VINA RESULT:    -6.744     24.413     26.959
REMARK INTER + INTRA:         -12.491
REMARK INTER:                 -11.031
REMARK INTRA:                  -1.460
REMARK UNBOUND:                -1.804
REMARK SMILES [H]/N=C/C(CC1CCNC1=O)NC(=O)C1C2C(CN1C(=O)C(NC(=O)C(F)(F)F)C(C)(C)C)C2(C)C
REMARK SMILES IDX 18 1 15 2 17 3 16 4 34 5 35 6 36 7 19 8 13 9 12 10 14 12
REMARK SMILES IDX 4 13 5 14 6 15 10 16 11 17 9 18 8 19 7 21 3 22 2 23 1 24
REMARK SMILES IDX 20 25 21 26 22 27 23 28 24 29 25 31 26 32 27 33 29 34 28 35
REMARK SMILES IDX 30 36 31 37 32 38 33 39
REMARK H PARENT 12 11 9 20 23 30
REMARK Flexibility Score: inf
ROOT
ATOM      1  C   UNL     1      10.384  21.547   3.925  1.00  0.00     0.125 C 
ATOM      2  C   UNL     1      12.319  20.240   3.662  1.00  0.00     0.178 C 
ATOM      3  C   UNL     1      11.474  22.276   4.739  1.00  0.00     0.021 C 
ATOM      4  C   UNL     1      12.743  21.414   4.570  1.00  0.00     0.033 C 
ATOM      5  C   UNL     1      12.664  22.870   3.983  1.00  0.00    -0.025 C 
ATOM      6  C   UNL     1      12.543  23.013   2.465  1.00  0.00     0.012 C 
ATOM      7  C   UNL     1      13.482  23.957   4.684  1.00  0.00     0.012 C 
ATOM      8  N   UNL     1      11.135  20.754   2.923  1.00  0.00    -0.328 N 
ENDROOT
BRANCH   2   9
ATOM      9  C   UNL     1      11.941  19.040   4.490  1.00  0.00     0.243 C 
ATOM     10  N   UNL     1      11.575  17.892   3.885  1.00  0.00    -0.347 N 
ATOM     11  H   UNL     1      11.555  17.839   2.917  1.00  0.00     0.164 HD
ATOM     12  O   UNL     1      11.965  19.106   5.701  1.00  0.00    -0.273 OA
BRANCH  10  13
ATOM     13  C   UNL     1      11.207  16.724   4.691  1.00  0.00     0.123 C 
BRANCH  13  14
ATOM     14  C   UNL     1       9.973  16.055   4.083  1.00  0.00     0.044 C 
BRANCH  14  15
ATOM     15  C   UNL     1      10.413  14.986   3.081  1.00  0.00     0.082 C 
ATOM     16  C   UNL     1       9.498  13.784   3.153  1.00  0.00     0.223 C 
ATOM     17  O   UNL     1       9.539  12.930   4.012  1.00  0.00    -0.275 OA
ATOM     18  N   UNL     1       8.634  13.799   2.122  1.00  0.00    -0.356 N 
ATOM     19  C   UNL     1       8.846  14.971   1.266  1.00  0.00     0.116 C 
ATOM     20  H   UNL     1       7.959  13.121   1.965  1.00  0.00     0.163 HD
ATOM     21  C   UNL     1      10.250  15.502   1.632  1.00  0.00     0.035 C 
ENDBRANCH  14  15
ENDBRANCH  13  14
BRANCH  13  22
ATOM     22  C   UNL     1      12.353  15.745   4.708  1.00  0.00     0.098 C 
ATOM     23  N   UNL     1      13.499  16.095   4.259  1.00  0.00    -0.311 NA
ATOM     24  H   UNL     1      14.236  15.463   4.271  1.00  0.00     0.187 HD
ENDBRANCH  13  22
ENDBRANCH  10  13
ENDBRANCH   2   9
BRANCH   8  25
ATOM     25  C   UNL     1      10.818  20.556   1.628  1.00  0.00     0.246 C 
ATOM     26  O   UNL     1      11.620  20.038   0.879  1.00  0.00    -0.272 OA
BRANCH  25  27
ATOM     27  C   UNL     1       9.468  20.977   1.110  1.00  0.00     0.177 C 
BRANCH  27  28
ATOM     28  N   UNL     1       9.642  21.873  -0.037  1.00  0.00    -0.336 N 
ATOM     29  C   UNL     1       9.408  23.193   0.097  1.00  0.00     0.326 C 
ATOM     30  H   UNL     1       9.926  21.515  -0.892  1.00  0.00     0.164 HD
ATOM     31  O   UNL     1       9.051  23.640   1.167  1.00  0.00    -0.265 OA
BRANCH  29  32
ATOM     32  C   UNL     1       9.587  24.113  -1.082  1.00  0.00     0.471 C 
ATOM     33  F   UNL     1      10.850  24.712  -1.019  1.00  0.00    -0.162 F 
ATOM     34  F   UNL     1       8.600  25.105  -1.055  1.00  0.00    -0.162 F 
ATOM     35  F   UNL     1       9.478  23.380  -2.268  1.00  0.00    -0.162 F 
ENDBRANCH  29  32
ENDBRANCH  27  28
BRANCH  27  36
ATOM     36  C   UNL     1       8.680  19.740   0.675  1.00  0.00    -0.009 C 
ATOM     37  C   UNL     1       7.431  20.175  -0.095  1.00  0.00     0.013 C 
ATOM     38  C   UNL     1       8.263  18.940   1.911  1.00  0.00     0.013 C 
ATOM     39  C   UNL     1       9.556  18.867  -0.226  1.00  0.00     0.013 C 
ENDBRANCH  27  36
ENDBRANCH  25  27
ENDBRANCH   8  25
TORSDOF 10
ENDMDL
