REMARK SMILES [H]/N=C/C(CC1CCNC1=O)NC(=O)C1C2C(CN1C(=O)C(NC(=O)C(F)(F)F)C(C)(C)C)C2(C)C
REMARK SMILES IDX 18 1 15 2 17 3 16 4 34 5 35 6 36 7 19 8 13 9 12 10 14 12
REMARK SMILES IDX 4 13 5 14 6 15 10 16 11 17 9 18 8 19 7 21 3 22 2 23 1 24
REMARK SMILES IDX 20 25 21 26 22 27 23 28 24 29 25 31 26 32 27 33 29 34 28 35
REMARK SMILES IDX 30 36 31 37 32 38 33 39
REMARK H PARENT 12 11 9 20 23 30
REMARK Flexibility Score: inf
ROOT
ATOM      1  C   UNL     1      -0.365  -2.281  -0.807  1.00  0.00     0.125 C 
ATOM      2  C   UNL     1       1.182  -1.094   0.504  1.00  0.00     0.178 C 
ATOM      3  C   UNL     1       0.315  -3.349   0.076  1.00  0.00     0.021 C 
ATOM      4  C   UNL     1       1.334  -2.569   0.933  1.00  0.00     0.033 C 
ATOM      5  C   UNL     1       0.096  -3.280   1.589  1.00  0.00    -0.025 C 
ATOM      6  C   UNL     1      -1.037  -2.391   2.104  1.00  0.00     0.012 C 
ATOM      7  C   UNL     1       0.362  -4.547   2.405  1.00  0.00     0.012 C 
ATOM      8  N   UNL     1      -0.192  -1.013  -0.059  1.00  0.00    -0.328 N 
ENDROOT
BRANCH   2   9
ATOM      9  C   UNL     1       2.202  -0.741  -0.548  1.00  0.00     0.243 C 
ATOM     10  N   UNL     1       3.451  -0.387  -0.183  1.00  0.00    -0.347 N 
ATOM     11  H   UNL     1       3.692  -0.359   0.756  1.00  0.00     0.164 HD
ATOM     12  O   UNL     1       1.900  -0.776  -1.722  1.00  0.00    -0.273 OA
BRANCH  10  13
ATOM     13  C   UNL     1       4.443  -0.044  -1.206  1.00  0.00     0.123 C 
BRANCH  13  14
ATOM     14  C   UNL     1       5.501   0.879  -0.599  1.00  0.00     0.044 C 
BRANCH  14  15
ATOM     15  C   UNL     1       4.853   2.207  -0.203  1.00  0.00     0.082 C 
ATOM     16  C   UNL     1       3.870   2.000   0.928  1.00  0.00     0.223 C 
ATOM     17  O   UNL     1       2.753   1.546   0.803  1.00  0.00    -0.275 OA
ATOM     18  N   UNL     1       4.414   2.397   2.092  1.00  0.00    -0.356 N 
ATOM     19  C   UNL     1       5.781   2.894   1.899  1.00  0.00     0.116 C 
ATOM     20  H   UNL     1       3.960   2.361   2.948  1.00  0.00     0.163 HD
ATOM     21  C   UNL     1       5.910   3.171   0.385  1.00  0.00     0.035 C 
ENDBRANCH  14  15
ENDBRANCH  13  14
BRANCH  13  22
ATOM     22  C   UNL     1       5.102  -1.303  -1.708  1.00  0.00     0.098 C 
ATOM     23  N   UNL     1       4.757  -2.439  -1.231  1.00  0.00    -0.311 NA
ATOM     24  H   UNL     1       5.182  -3.249  -1.555  1.00  0.00     0.187 HD
ENDBRANCH  13  22
ENDBRANCH  10  13
ENDBRANCH   2   9
BRANCH   8  25
ATOM     25  C   UNL     1      -1.088  -0.017   0.086  1.00  0.00     0.246 C 
ATOM     26  O   UNL     1      -0.834   0.928   0.803  1.00  0.00    -0.272 OA
BRANCH  25  27
ATOM     27  C   UNL     1      -2.406  -0.077  -0.642  1.00  0.00     0.177 C 
BRANCH  27  28
ATOM     28  N   UNL     1      -3.416   0.668   0.114  1.00  0.00    -0.336 N 
ATOM     29  C   UNL     1      -4.722   0.366  -0.026  1.00  0.00     0.326 C 
ATOM     30  H   UNL     1      -3.145   1.379   0.715  1.00  0.00     0.164 HD
ATOM     31  O   UNL     1      -5.061  -0.523  -0.779  1.00  0.00    -0.265 OA
BRANCH  29  32
ATOM     32  C   UNL     1      -5.760   1.132   0.751  1.00  0.00     0.471 C 
ATOM     33  F   UNL     1      -5.689   2.488   0.414  1.00  0.00    -0.162 F 
ATOM     34  F   UNL     1      -5.524   0.980   2.122  1.00  0.00    -0.162 F 
ATOM     35  F   UNL     1      -7.033   0.641   0.440  1.00  0.00    -0.162 F 
ENDBRANCH  29  32
ENDBRANCH  27  28
BRANCH  27  36
ATOM     36  C   UNL     1      -2.249   0.543  -2.032  1.00  0.00    -0.009 C 
ATOM     37  C   UNL     1      -1.750   1.983  -1.895  1.00  0.00     0.013 C 
ATOM     38  C   UNL     1      -3.601   0.538  -2.748  1.00  0.00     0.013 C 
ATOM     39  C   UNL     1      -1.239  -0.272  -2.843  1.00  0.00     0.013 C 
ENDBRANCH  27  36
ENDBRANCH  25  27
ENDBRANCH   8  25
TORSDOF 10
