REMARK SMILES [H]/N=C/C(CC1CCNC1=O)NC(=O)C1C2C(CN1C(=O)C(NC(=O)C(F)(F)F)C(C)(C)C)C2(C)C
REMARK SMILES IDX 18 1 15 2 17 3 16 4 34 5 35 6 36 7 19 8 13 9 12 10 14 12
REMARK SMILES IDX 4 13 5 14 6 15 10 16 11 17 9 18 8 19 7 21 3 22 2 23 1 24
REMARK SMILES IDX 20 25 21 26 22 27 23 28 24 29 25 31 26 32 27 33 29 34 28 35
REMARK SMILES IDX 30 36 31 37 32 38 33 39
REMARK H PARENT 12 11 9 20 23 30
REMARK Flexibility Score: inf
ROOT
ATOM      1  C   UNL     1     -10.156   4.834  -6.305  1.00  0.00     0.125 C 
ATOM      2  C   UNL     1      -7.957   4.063  -5.995  1.00  0.00     0.178 C 
ATOM      3  C   UNL     1     -10.141   4.220  -4.888  1.00  0.00     0.021 C 
ATOM      4  C   UNL     1      -8.699   3.710  -4.688  1.00  0.00     0.033 C 
ATOM      5  C   UNL     1      -9.272   4.888  -3.821  1.00  0.00    -0.025 C 
ATOM      6  C   UNL     1      -8.748   6.296  -4.109  1.00  0.00     0.012 C 
ATOM      7  C   UNL     1      -9.592   4.592  -2.354  1.00  0.00     0.012 C 
ATOM      8  N   UNL     1      -8.741   5.188  -6.572  1.00  0.00    -0.328 N 
ENDROOT
BRANCH   2   9
ATOM      9  C   UNL     1      -7.956   2.887  -6.938  1.00  0.00     0.243 C 
ATOM     10  N   UNL     1      -8.436   1.695  -6.528  1.00  0.00    -0.347 N 
ATOM     11  H   UNL     1      -8.781   1.596  -5.627  1.00  0.00     0.164 HD
ATOM     12  O   UNL     1      -7.524   3.012  -8.064  1.00  0.00    -0.273 OA
BRANCH  10  13
ATOM     13  C   UNL     1      -8.435   0.552  -7.444  1.00  0.00     0.123 C 
BRANCH  13  14
ATOM     14  C   UNL     1      -7.366  -0.451  -7.006  1.00  0.00     0.044 C 
BRANCH  14  15
ATOM     15  C   UNL     1      -6.263  -0.517  -8.064  1.00  0.00     0.082 C 
ATOM     16  C   UNL     1      -5.727  -1.926  -8.183  1.00  0.00     0.223 C 
ATOM     17  O   UNL     1      -4.950  -2.441  -7.408  1.00  0.00    -0.275 OA
ATOM     18  N   UNL     1      -6.235  -2.523  -9.275  1.00  0.00    -0.356 N 
ATOM     19  C   UNL     1      -7.147  -1.629  -9.996  1.00  0.00     0.116 C 
ATOM     20  H   UNL     1      -6.023  -3.428  -9.552  1.00  0.00     0.163 HD
ATOM     21  C   UNL     1      -6.840  -0.211  -9.466  1.00  0.00     0.035 C 
ENDBRANCH  14  15
ENDBRANCH  13  14
BRANCH  13  22
ATOM     22  C   UNL     1      -9.788  -0.113  -7.420  1.00  0.00     0.098 C 
ATOM     23  N   UNL     1      -9.956  -1.196  -6.759  1.00  0.00    -0.311 NA
ATOM     24  H   UNL     1     -10.827  -1.622  -6.744  1.00  0.00     0.187 HD
ENDBRANCH  13  22
ENDBRANCH  10  13
ENDBRANCH   2   9
BRANCH   8  25
ATOM     25  C   UNL     1      -8.274   6.291  -7.189  1.00  0.00     0.246 C 
ATOM     26  O   UNL     1      -7.079   6.486  -7.260  1.00  0.00    -0.272 OA
BRANCH  25  27
ATOM     27  C   UNL     1      -9.236   7.282  -7.792  1.00  0.00     0.177 C 
BRANCH  27  28
ATOM     28  N   UNL     1      -8.845   8.640  -7.405  1.00  0.00    -0.336 N 
ATOM     29  C   UNL     1      -9.536   9.295  -6.451  1.00  0.00     0.326 C 
ATOM     30  H   UNL     1      -8.089   9.068  -7.835  1.00  0.00     0.164 HD
ATOM     31  O   UNL     1     -10.483   8.760  -5.913  1.00  0.00    -0.265 OA
BRANCH  29  32
ATOM     32  C   UNL     1      -9.134  10.691  -6.053  1.00  0.00     0.471 C 
ATOM     33  F   UNL     1      -8.856  11.441  -7.201  1.00  0.00    -0.162 F 
ATOM     34  F   UNL     1      -7.993  10.636  -5.245  1.00  0.00    -0.162 F 
ATOM     35  F   UNL     1     -10.179  11.294  -5.344  1.00  0.00    -0.162 F 
ENDBRANCH  29  32
ENDBRANCH  27  28
BRANCH  27  36
ATOM     36  C   UNL     1      -9.207   7.158  -9.316  1.00  0.00    -0.009 C 
ATOM     37  C   UNL     1      -8.104   8.056  -9.881  1.00  0.00     0.013 C 
ATOM     38  C   UNL     1     -10.559   7.590  -9.889  1.00  0.00     0.013 C 
ATOM     39  C   UNL     1      -8.930   5.704  -9.705  1.00  0.00     0.013 C 
ENDBRANCH  27  36
ENDBRANCH  25  27
ENDBRANCH   8  25
TORSDOF 10
