Q56
  -OEChem-02242320033D

 70 72  0     1  0  0  0  0  0999 V2000
    0.7740    1.0670   -3.2820 C   0  0  0  0  0  0  0  0  0  0  0  0
   -4.1030   -1.7820   -0.7050 C   0  0  1  0  0  0  0  0  0  0  0  0
   -0.2260    0.6090   -1.0390 C   0  0  1  0  0  0  0  0  0  0  0  0
   -0.2890    0.2650   -2.5280 C   0  0  0  0  0  0  0  0  0  0  0  0
    0.7960    0.6330   -4.7490 C   0  0  0  0  0  0  0  0  0  0  0  0
    0.4440    2.5590   -3.1970 C   0  0  0  0  0  0  0  0  0  0  0  0
    4.4480    1.4560   -0.2190 C   0  0  0  0  0  0  0  0  0  0  0  0
    5.6730    0.8340    0.4010 C   0  0  0  0  0  0  0  0  0  0  0  0
    7.6330   -0.5230    0.2130 C   0  0  0  0  0  0  0  0  0  0  0  0
    8.5010   -1.3300   -0.5430 C   0  0  0  0  0  0  0  0  0  0  0  0
    9.5990   -1.8750    0.0470 C   0  0  0  0  0  0  0  0  0  0  0  0
    9.0600   -0.8720    2.1570 C   0  0  0  0  0  0  0  0  0  0  0  0
   -5.7140    2.6650    0.9090 C   0  0  0  0  0  0  0  0  0  0  0  0
   -1.3500   -0.0860   -0.3150 C   0  0  0  0  0  0  0  0  0  0  0  0
    2.1430    0.9580   -0.5850 C   0  0  0  0  0  0  0  0  0  0  0  0
    6.4900    0.0580   -0.3620 C   0  0  0  0  0  0  0  0  0  0  0  0
    9.8770   -1.6470    1.3940 C   0  0  0  0  0  0  0  0  0  0  0  0
    7.9170   -0.2900    1.5820 C   0  0  0  0  0  0  0  0  0  0  0  0
    7.0550    0.5250    2.3350 C   0  0  0  0  0  0  0  0  0  0  0  0
    5.9540    1.0670    1.7450 C   0  0  0  0  0  0  0  0  0  0  0  0
   -3.7230   -0.5060    0.0490 C   0  0  2  0  0  0  0  0  0  0  0  0
   -4.9350    0.4240    0.1210 C   0  0  0  0  0  0  0  0  0  0  0  0
   -4.5720    1.6730    0.9280 C   0  0  2  0  0  0  0  0  0  0  0  0
   -4.4010    1.3200    2.4230 C   0  0  0  0  0  0  0  0  0  0  0  0
   -4.9830    2.5750    3.1120 C   0  0  0  0  0  0  0  0  0  0  0  0
    1.0570    0.1650   -0.4880 N   0  0  0  0  0  0  0  0  0  0  0  0
   -2.6290    0.1690   -0.6550 N   0  0  0  0  0  0  0  0  0  0  0  0
   -5.9250    3.1500    2.1450 N   0  0  0  0  0  0  0  0  0  0  0  0
   -1.1040   -0.8740    0.5730 O   0  0  0  0  0  0  0  0  0  0  0  0
   -6.3430    2.9810   -0.0790 O   0  0  0  0  0  0  0  0  0  0  0  0
   -2.9500   -2.6140   -0.8470 O   0  0  0  0  0  0  0  0  0  0  0  0
    3.3220    0.5500   -0.0790 O   0  0  0  0  0  0  0  0  0  0  0  0
    2.0570    2.0420   -1.1280 O   0  0  0  0  0  0  0  0  0  0  0  0
    1.7520    0.8850   -2.8350 H   0  0  0  0  0  0  0  0  0  0  0  0
   -4.4860   -1.5210   -1.6910 H   0  0  0  0  0  0  0  0  0  0  0  0
   -0.3230    1.6870   -0.9100 H   0  0  0  0  0  0  0  0  0  0  0  0
   -1.2760    0.5150   -2.9170 H   0  0  0  0  0  0  0  0  0  0  0  0
   -0.1030   -0.8000   -2.6630 H   0  0  0  0  0  0  0  0  0  0  0  0
    1.5540    1.2040   -5.2860 H   0  0  0  0  0  0  0  0  0  0  0  0
    1.0320   -0.4300   -4.8100 H   0  0  0  0  0  0  0  0  0  0  0  0
   -0.1810    0.8140   -5.1960 H   0  0  0  0  0  0  0  0  0  0  0  0
   -0.5330    2.7400   -3.6440 H   0  0  0  0  0  0  0  0  0  0  0  0
    0.4280    2.8680   -2.1510 H   0  0  0  0  0  0  0  0  0  0  0  0
    1.2010    3.1300   -3.7340 H   0  0  0  0  0  0  0  0  0  0  0  0
    4.2230    2.3960    0.2840 H   0  0  0  0  0  0  0  0  0  0  0  0
    4.6330    1.6450   -1.2770 H   0  0  0  0  0  0  0  0  0  0  0  0
    8.2970   -1.5160   -1.5870 H   0  0  0  0  0  0  0  0  0  0  0  0
   10.2640   -2.4950   -0.5360 H   0  0  0  0  0  0  0  0  0  0  0  0
    9.2880   -0.7040    3.1990 H   0  0  0  0  0  0  0  0  0  0  0  0
    6.2610   -0.1110   -1.4040 H   0  0  0  0  0  0  0  0  0  0  0  0
   10.7550   -2.0920    1.8390 H   0  0  0  0  0  0  0  0  0  0  0  0
    7.2630    0.7170    3.3770 H   0  0  0  0  0  0  0  0  0  0  0  0
    5.2900    1.6870    2.3290 H   0  0  0  0  0  0  0  0  0  0  0  0
   -3.4010   -0.7630    1.0590 H   0  0  0  0  0  0  0  0  0  0  0  0
   -5.2290    0.7160   -0.8870 H   0  0  0  0  0  0  0  0  0  0  0  0
   -5.7620   -0.0940    0.6060 H   0  0  0  0  0  0  0  0  0  0  0  0
   -3.6640    2.1290    0.5350 H   0  0  0  0  0  0  0  0  0  0  0  0
   -4.9760    0.4310    2.6830 H   0  0  0  0  0  0  0  0  0  0  0  0
   -3.3490    1.1890    2.6750 H   0  0  0  0  0  0  0  0  0  0  0  0
   -5.5050    2.2950    4.0270 H   0  0  0  0  0  0  0  0  0  0  0  0
   -4.1880    3.2860    3.3340 H   0  0  0  0  0  0  0  0  0  0  0  0
    1.1250   -0.7000   -0.0550 H   0  0  0  0  0  0  0  0  0  0  0  0
   -2.8260    0.8000   -1.3650 H   0  0  0  0  0  0  0  0  0  0  0  0
   -6.6130    3.7970    2.3690 H   0  0  0  0  0  0  0  0  0  0  0  0
   -5.3810   -2.6750    0.2230 S   0  0  0  0  0  0  0  0  0  0  0  0
   -5.7760   -3.8480   -0.4750 O   0  0  0  0  0  0  0  0  0  0  0  0
   -5.0550   -2.7190    1.6050 O   0  0  0  0  0  0  0  0  0  0  0  0
   -6.6020   -1.7690    0.1540 O   0  0  0  0  0  0  0  0  0  0  0  0
   -2.2240   -2.2000   -1.3340 H   0  0  0  0  0  0  0  0  0  0  0  0
   -7.3780   -2.1190    0.6140 H   0  0  0  0  0  0  0  0  0  0  0  0
 13 28  1  0  0  0  0
 25 28  1  0  0  0  0
 13 30  2  0  0  0  0
 13 23  1  0  0  0  0
 24 25  1  0  0  0  0
 22 23  1  0  0  0  0
 21 22  1  0  0  0  0
 23 24  1  0  0  0  0
  2 31  1  0  0  0  0
 12 17  2  0  0  0  0
 12 18  1  0  0  0  0
 11 17  1  0  0  0  0
  2 21  1  0  0  0  0
 18 19  2  0  0  0  0
 19 20  1  0  0  0  0
 21 27  1  0  0  0  0
  9 18  1  0  0  0  0
 10 11  2  0  0  0  0
  8 20  2  0  0  0  0
  9 10  1  0  0  0  0
  9 16  2  0  0  0  0
 14 27  1  0  0  0  0
  8 16  1  0  0  0  0
  7  8  1  0  0  0  0
 15 33  2  0  0  0  0
 14 29  2  0  0  0  0
  3 14  1  0  0  0  0
  7 32  1  0  0  0  0
 15 32  1  0  0  0  0
 15 26  1  0  0  0  0
  3 26  1  0  0  0  0
  3  4  1  0  0  0  0
  1  4  1  0  0  0  0
  1  5  1  0  0  0  0
  1  6  1  0  0  0  0
  1 34  1  0  0  0  0
  2 35  1  0  0  0  0
  3 36  1  0  0  0  0
  4 37  1  0  0  0  0
  4 38  1  0  0  0  0
  5 39  1  0  0  0  0
  5 40  1  0  0  0  0
  5 41  1  0  0  0  0
  6 42  1  0  0  0  0
  6 43  1  0  0  0  0
  6 44  1  0  0  0  0
  7 45  1  0  0  0  0
  7 46  1  0  0  0  0
 10 47  1  0  0  0  0
 11 48  1  0  0  0  0
 12 49  1  0  0  0  0
 16 50  1  0  0  0  0
 17 51  1  0  0  0  0
 19 52  1  0  0  0  0
 20 53  1  0  0  0  0
 21 54  1  0  0  0  0
 22 55  1  0  0  0  0
 22 56  1  0  0  0  0
 23 57  1  0  0  0  0
 24 58  1  0  0  0  0
 24 59  1  0  0  0  0
 25 60  1  0  0  0  0
 25 61  1  0  0  0  0
 26 62  1  0  0  0  0
 27 63  1  0  0  0  0
 28 64  1  0  0  0  0
  2 65  1  0  0  0  0
 65 66  2  0  0  0  0
 65 67  2  0  0  0  0
 65 68  1  0  0  0  0
 31 69  1  0  0  0  0
 68 70  1  0  0  0  0
M  END
> <OPENEYE_ISO_SMILES>
CC(C)C[C@@H](C(=O)N[C@@H](C[C@@H]1CCNC1=O)[C@@H](O)S(=O)(=O)O)NC(=O)OCc2ccc3ccccc3c2

> <OPENEYE_INCHI>
InChI=1S/C25H33N3O8S/c1-15(2)11-20(28-25(32)36-14-16-7-8-17-5-3-4-6-18(17)12-16)23(30)27-21(24(31)37(33,34)35)13-19-9-10-26-22(19)29/h3-8,12,15,19-21,24,31H,9-11,13-14H2,1-2H3,(H,26,29)(H,27,30)(H,28,32)(H,33,34,35)/t19-,20-,21-,24-/m0/s1

> <OPENEYE_INCHIKEY>
KLDKNBLMZUYYLD-CIEVZJJWSA-N

> <FORMULA>
C25H33N3O8S

$$$$
