W21
  -OEChem-02242320043D

 28 28  0     1  0  0  0  0  0999 V2000
   -2.9440   -0.7240    0.7860 C   0  0  0  0  0  0  0  0  0  0  0  0
   -4.1820   -0.1640    0.0630 C   0  0  0  0  0  0  0  0  0  0  0  0
   -3.7390    1.1480   -0.6170 C   0  0  0  0  0  0  0  0  0  0  0  0
   -2.2080    0.9900   -0.7850 C   0  0  0  0  0  0  0  0  0  0  0  0
    3.0550    0.3980    0.2370 C   0  0  0  0  0  0  0  0  0  0  0  0
    2.8430    1.5280    0.6090 O   0  0  0  0  0  0  0  0  0  0  0  0
    4.3160   -0.0510    0.1370 O   0  0  0  0  0  0  0  0  0  0  0  0
    1.9020   -0.5080   -0.1130 C   0  0  2  0  0  0  0  0  0  0  0  0
    2.0240   -0.9450   -1.5740 C   0  0  0  0  0  0  0  0  0  0  0  0
    0.6400    0.2120    0.0780 N   0  0  0  0  0  0  0  0  0  0  0  0
   -0.4950   -0.4720    0.3240 C   0  0  0  0  0  0  0  0  0  0  0  0
   -0.4710   -1.6840    0.3860 O   0  0  0  0  0  0  0  0  0  0  0  0
   -1.7930    0.2670    0.5200 C   0  0  0  0  0  0  0  0  0  0  0  0
   -3.1370   -0.7940    1.8560 H   0  0  0  0  0  0  0  0  0  0  0  0
   -2.6910   -1.7060    0.3860 H   0  0  0  0  0  0  0  0  0  0  0  0
   -4.5290   -0.8750   -0.6880 H   0  0  0  0  0  0  0  0  0  0  0  0
   -4.9760    0.0370    0.7820 H   0  0  0  0  0  0  0  0  0  0  0  0
   -4.2210    1.2550   -1.5890 H   0  0  0  0  0  0  0  0  0  0  0  0
   -3.9690    2.0030    0.0180 H   0  0  0  0  0  0  0  0  0  0  0  0
   -1.9760    0.3780   -1.6570 H   0  0  0  0  0  0  0  0  0  0  0  0
   -1.7250    1.9650   -0.8610 H   0  0  0  0  0  0  0  0  0  0  0  0
    5.0220    0.5670    0.3730 H   0  0  0  0  0  0  0  0  0  0  0  0
    1.9210   -1.3860    0.5320 H   0  0  0  0  0  0  0  0  0  0  0  0
    1.1900   -1.6010   -1.8270 H   0  0  0  0  0  0  0  0  0  0  0  0
    2.0050   -0.0670   -2.2190 H   0  0  0  0  0  0  0  0  0  0  0  0
    2.9630   -1.4800   -1.7160 H   0  0  0  0  0  0  0  0  0  0  0  0
    0.6220    1.1800    0.0280 H   0  0  0  0  0  0  0  0  0  0  0  0
   -1.7050    0.9790    1.3410 H   0  0  0  0  0  0  0  0  0  0  0  0
  1  2  1  0  0  0  0
  1 13  1  0  0  0  0
  2  3  1  0  0  0  0
 11 13  1  0  0  0  0
  4 13  1  0  0  0  0
 11 12  2  0  0  0  0
 10 11  1  0  0  0  0
  3  4  1  0  0  0  0
  8 10  1  0  0  0  0
  8  9  1  0  0  0  0
  5  8  1  0  0  0  0
  5  6  2  0  0  0  0
  5  7  1  0  0  0  0
  1 14  1  0  0  0  0
  1 15  1  0  0  0  0
  2 16  1  0  0  0  0
  2 17  1  0  0  0  0
  3 18  1  0  0  0  0
  3 19  1  0  0  0  0
  4 20  1  0  0  0  0
  4 21  1  0  0  0  0
  7 22  1  0  0  0  0
  8 23  1  0  0  0  0
  9 24  1  0  0  0  0
  9 25  1  0  0  0  0
  9 26  1  0  0  0  0
 10 27  1  0  0  0  0
 13 28  1  0  0  0  0
M  END
> <OPENEYE_ISO_SMILES>
C[C@@H](C(=O)O)NC(=O)C1CCCC1

> <OPENEYE_INCHI>
InChI=1S/C9H15NO3/c1-6(9(12)13)10-8(11)7-4-2-3-5-7/h6-7H,2-5H2,1H3,(H,10,11)(H,12,13)/t6-/m0/s1

> <OPENEYE_INCHIKEY>
WLHVFWMGYCZXDM-LURJTMIESA-N

> <FORMULA>
C9H15NO3

$$$$
