IRK
  -OEChem-02242320023D

 70 71  0     1  0  0  0  0  0999 V2000
   -2.5200   -0.1630   -0.1550 C   0  0  0  0  0  0  0  0  0  0  0  0
   -0.1810   -0.2340    0.5210 C   0  0  1  0  0  0  0  0  0  0  0  0
   -0.0160   -1.5940    1.2030 C   0  0  0  0  0  0  0  0  0  0  0  0
   -1.2960   -1.9410    1.9660 C   0  0  0  0  0  0  0  0  0  0  0  0
   -1.1790   -3.3520    2.5440 C   0  0  0  0  0  0  0  0  0  0  0  0
   -1.4990   -0.9390    3.1040 C   0  0  0  0  0  0  0  0  0  0  0  0
    1.1210    0.1630   -0.1270 C   0  0  0  0  0  0  0  0  0  0  0  0
    3.5180    0.5860   -0.0190 C   0  0  1  0  0  0  0  0  0  0  0  0
    3.8360   -0.5210   -1.0250 C   0  0  0  0  0  0  0  0  0  0  0  0
    3.9960   -1.8510   -0.2860 C   0  0  1  0  0  0  0  0  0  0  0  0
    4.3020   -2.9660   -1.2620 C   0  0  0  0  0  0  0  0  0  0  0  0
    5.7710   -3.2520    0.5140 C   0  0  0  0  0  0  0  0  0  0  0  0
    5.2320   -1.8100    0.6410 C   0  0  0  0  0  0  0  0  0  0  0  0
    3.4450    1.9310   -0.7460 C   0  0  2  0  0  0  0  0  0  0  0  0
   -4.8520   -0.0500   -0.6510 C   0  0  0  0  0  0  0  0  0  0  0  0
   -5.7960   -0.1710   -1.8490 C   0  0  2  0  0  0  0  0  0  0  0  0
   -6.6030    1.0680   -2.2410 C   0  0  0  0  0  0  0  0  0  0  0  0
   -7.3000   -0.1190   -1.5720 C   0  0  2  0  0  0  0  0  0  0  0  0
   -7.7440    0.0520   -0.1180 C   0  0  0  0  0  0  0  0  0  0  0  0
   -9.2690   -0.0440   -0.0360 C   0  0  0  0  0  0  0  0  0  0  0  0
   -9.7140    0.1260    1.4180 C   0  0  0  0  0  0  0  0  0  0  0  0
   -1.2270   -0.3240   -0.5000 N   0  0  0  0  0  0  0  0  0  0  0  0
    2.2310    0.3080    0.6230 N   0  0  0  0  0  0  0  0  0  0  0  0
    5.3020   -3.7310   -0.7920 N   0  0  0  0  0  0  0  0  0  0  0  0
   -2.8180    0.0570    1.0030 O   0  0  0  0  0  0  0  0  0  0  0  0
    3.7280   -3.1440   -2.3160 O   0  0  0  0  0  0  0  0  0  0  0  0
    4.6940    2.1930   -1.3880 O   0  0  0  0  0  0  0  0  0  0  0  0
    1.1680    0.3530   -1.3240 O   0  0  0  0  0  0  0  0  0  0  0  0
   -3.4820   -0.2390   -1.0940 O   0  0  0  0  0  0  0  0  0  0  0  0
   -0.4600    0.5130    1.2640 H   0  0  0  0  0  0  0  0  0  0  0  0
    0.1760   -2.3580    0.4500 H   0  0  0  0  0  0  0  0  0  0  0  0
    0.8220   -1.5520    1.9000 H   0  0  0  0  0  0  0  0  0  0  0  0
   -2.1470   -1.8950    1.2860 H   0  0  0  0  0  0  0  0  0  0  0  0
   -0.3280   -3.3980    3.2230 H   0  0  0  0  0  0  0  0  0  0  0  0
   -2.0910   -3.5990    3.0870 H   0  0  0  0  0  0  0  0  0  0  0  0
   -1.0350   -4.0660    1.7330 H   0  0  0  0  0  0  0  0  0  0  0  0
   -1.5820    0.0670    2.6930 H   0  0  0  0  0  0  0  0  0  0  0  0
   -2.4110   -1.1860    3.6480 H   0  0  0  0  0  0  0  0  0  0  0  0
   -0.6480   -0.9840    3.7840 H   0  0  0  0  0  0  0  0  0  0  0  0
    4.3010    0.6250    0.7380 H   0  0  0  0  0  0  0  0  0  0  0  0
    3.0220   -0.6020   -1.7460 H   0  0  0  0  0  0  0  0  0  0  0  0
    4.7620   -0.2820   -1.5480 H   0  0  0  0  0  0  0  0  0  0  0  0
    3.0970   -2.0790    0.2860 H   0  0  0  0  0  0  0  0  0  0  0  0
    6.8600   -3.2520    0.5470 H   0  0  0  0  0  0  0  0  0  0  0  0
    5.3690   -3.8780    1.3110 H   0  0  0  0  0  0  0  0  0  0  0  0
    5.9650   -1.0870    0.2820 H   0  0  0  0  0  0  0  0  0  0  0  0
    4.9420   -1.5910    1.6690 H   0  0  0  0  0  0  0  0  0  0  0  0
    2.6520    1.8970   -1.4930 H   0  0  0  0  0  0  0  0  0  0  0  0
   -4.9560    0.9390   -0.2060 H   0  0  0  0  0  0  0  0  0  0  0  0
   -5.1030   -0.8100    0.0880 H   0  0  0  0  0  0  0  0  0  0  0  0
   -5.4550   -0.8240   -2.6530 H   0  0  0  0  0  0  0  0  0  0  0  0
   -6.4620    1.9700   -1.6450 H   0  0  0  0  0  0  0  0  0  0  0  0
   -6.7930    1.2300   -3.3020 H   0  0  0  0  0  0  0  0  0  0  0  0
   -7.9480   -0.7370   -2.1920 H   0  0  0  0  0  0  0  0  0  0  0  0
   -7.2980   -0.7330    0.4930 H   0  0  0  0  0  0  0  0  0  0  0  0
   -7.4210    1.0260    0.2490 H   0  0  0  0  0  0  0  0  0  0  0  0
   -9.7160    0.7410   -0.6460 H   0  0  0  0  0  0  0  0  0  0  0  0
   -9.5920   -1.0180   -0.4030 H   0  0  0  0  0  0  0  0  0  0  0  0
  -10.8000    0.0580    1.4760 H   0  0  0  0  0  0  0  0  0  0  0  0
   -9.2670   -0.6590    2.0290 H   0  0  0  0  0  0  0  0  0  0  0  0
   -9.3900    1.1000    1.7850 H   0  0  0  0  0  0  0  0  0  0  0  0
   -0.9900   -0.4990   -1.4240 H   0  0  0  0  0  0  0  0  0  0  0  0
    2.1780    0.2280    1.5890 H   0  0  0  0  0  0  0  0  0  0  0  0
    5.6680   -4.5000   -1.2560 H   0  0  0  0  0  0  0  0  0  0  0  0
    4.9460    1.5280   -2.0430 H   0  0  0  0  0  0  0  0  0  0  0  0
    3.0920    3.2470    0.4510 S   0  0  0  0  0  0  0  0  0  0  0  0
    1.7370    2.8760    1.0360 O   0  0  0  0  0  0  0  0  0  0  0  0
    3.9830    3.1680    1.5560 O   0  0  0  0  0  0  0  0  0  0  0  0
    2.8610    4.4800   -0.2170 O   0  0  0  0  0  0  0  0  0  0  0  0
    1.4120    3.4980    1.7010 H   0  0  0  0  0  0  0  0  0  0  0  0
  4  6  1  0  0  0  0
 20 21  1  0  0  0  0
  4  5  1  0  0  0  0
  3  4  1  0  0  0  0
 19 20  1  0  0  0  0
  2  3  1  0  0  0  0
 18 19  1  0  0  0  0
  2 22  1  0  0  0  0
  1 22  1  0  0  0  0
  2  7  1  0  0  0  0
 16 18  1  0  0  0  0
 17 18  1  0  0  0  0
  1 29  1  0  0  0  0
 15 29  1  0  0  0  0
  1 25  2  0  0  0  0
 15 16  1  0  0  0  0
 16 17  1  0  0  0  0
  7 28  2  0  0  0  0
  7 23  1  0  0  0  0
  8 23  1  0  0  0  0
 14 27  1  0  0  0  0
  8 14  1  0  0  0  0
  8  9  1  0  0  0  0
  9 10  1  0  0  0  0
 10 13  1  0  0  0  0
 10 11  1  0  0  0  0
 12 13  1  0  0  0  0
 11 26  2  0  0  0  0
 11 24  1  0  0  0  0
 12 24  1  0  0  0  0
  2 30  1  0  0  0  0
  3 31  1  0  0  0  0
  3 32  1  0  0  0  0
  4 33  1  0  0  0  0
  5 34  1  0  0  0  0
  5 35  1  0  0  0  0
  5 36  1  0  0  0  0
  6 37  1  0  0  0  0
  6 38  1  0  0  0  0
  6 39  1  0  0  0  0
  8 40  1  0  0  0  0
  9 41  1  0  0  0  0
  9 42  1  0  0  0  0
 10 43  1  0  0  0  0
 12 44  1  0  0  0  0
 12 45  1  0  0  0  0
 13 46  1  0  0  0  0
 13 47  1  0  0  0  0
 14 48  1  0  0  0  0
 15 49  1  0  0  0  0
 15 50  1  0  0  0  0
 16 51  1  0  0  0  0
 17 52  1  0  0  0  0
 17 53  1  0  0  0  0
 18 54  1  0  0  0  0
 19 55  1  0  0  0  0
 19 56  1  0  0  0  0
 20 57  1  0  0  0  0
 20 58  1  0  0  0  0
 21 59  1  0  0  0  0
 21 60  1  0  0  0  0
 21 61  1  0  0  0  0
 22 62  1  0  0  0  0
 23 63  1  0  0  0  0
 24 64  1  0  0  0  0
 27 65  1  0  0  0  0
 14 66  1  0  0  0  0
 66 67  1  0  0  0  0
 66 68  2  0  0  0  0
 66 69  2  0  0  0  0
 67 70  1  0  0  0  0
M  END
> <OPENEYE_ISO_SMILES>
CCC[C@H]1C[C@H]1COC(=O)N[C@@H](CC(C)C)C(=O)N[C@@H](C[C@@H]2CCNC2=O)[C@H](O)S(=O)(=O)O

> <OPENEYE_INCHI>
InChI=1S/C21H37N3O8S/c1-4-5-13-9-15(13)11-32-21(28)24-16(8-12(2)3)19(26)23-17(20(27)33(29,30)31)10-14-6-7-22-18(14)25/h12-17,20,27H,4-11H2,1-3H3,(H,22,25)(H,23,26)(H,24,28)(H,29,30,31)/t13-,14-,15-,16-,17-,20+/m0/s1

> <OPENEYE_INCHIKEY>
ZYXQADHLOGEXOL-CLTKYUOCSA-N

> <FORMULA>
C21H37N3O8S

$$$$
