IUB
  -OEChem-02242320023D

 70 71  0     1  0  0  0  0  0999 V2000
    5.2300    1.8330    0.7770 S   0  0  0  0  0  0  0  0  0  0  0  0
   -2.9680    0.3120    0.1040 C   0  0  0  0  0  0  0  0  0  0  0  0
   -0.6490    0.3650   -0.6430 C   0  0  1  0  0  0  0  0  0  0  0  0
   -0.6590    1.2730   -1.8740 C   0  0  0  0  0  0  0  0  0  0  0  0
   -1.9630    1.0680   -2.6480 C   0  0  0  0  0  0  0  0  0  0  0  0
   -2.0300    2.0630   -3.8080 C   0  0  0  0  0  0  0  0  0  0  0  0
   -2.0110   -0.3590   -3.1970 C   0  0  0  0  0  0  0  0  0  0  0  0
    0.6840    0.4760    0.0520 C   0  0  0  0  0  0  0  0  0  0  0  0
    3.1110    0.2550    0.0710 C   0  0  1  0  0  0  0  0  0  0  0  0
    4.0560   -0.8200   -0.4670 C   0  0  0  0  0  0  0  0  0  0  0  0
    3.4770   -2.2050   -0.1680 C   0  0  1  0  0  0  0  0  0  0  0  0
    4.3850   -3.2870   -0.7100 C   0  0  0  0  0  0  0  0  0  0  0  0
    3.7870   -3.9670    1.4290 C   0  0  0  0  0  0  0  0  0  0  0  0
    3.4500   -2.4610    1.3570 C   0  0  0  0  0  0  0  0  0  0  0  0
    3.7090    1.6390   -0.1920 C   0  0  1  0  0  0  0  0  0  0  0  0
   -5.2720    0.1510    0.7030 C   0  0  0  0  0  0  0  0  0  0  0  0
   -6.2430    0.6880    1.7570 C   0  0  2  0  0  0  0  0  0  0  0  0
   -6.8880   -0.3250    2.7050 C   0  0  0  0  0  0  0  0  0  0  0  0
   -7.7230    0.3290    1.6020 C   0  0  2  0  0  0  0  0  0  0  0  0
   -8.1170   -0.5400    0.4060 C   0  0  0  0  0  0  0  0  0  0  0  0
   -9.6400   -0.6820    0.3590 C   0  0  0  0  0  0  0  0  0  0  0  0
  -10.0350   -1.5500   -0.8370 C   0  0  0  0  0  0  0  0  0  0  0  0
   -1.7140    0.7760    0.2760 N   0  0  0  0  0  0  0  0  0  0  0  0
    1.8150    0.1480   -0.6040 N   0  0  0  0  0  0  0  0  0  0  0  0
    4.5450   -4.2570    0.2060 N   0  0  0  0  0  0  0  0  0  0  0  0
   -3.2150   -0.4470   -0.8120 O   0  0  0  0  0  0  0  0  0  0  0  0
    4.8940   -3.2800   -1.8110 O   0  0  0  0  0  0  0  0  0  0  0  0
    2.7690    2.6450    0.1900 O   0  0  0  0  0  0  0  0  0  0  0  0
    0.7390    0.8600    1.2010 O   0  0  0  0  0  0  0  0  0  0  0  0
   -3.9460    0.6890    0.9480 O   0  0  0  0  0  0  0  0  0  0  0  0
   -0.8130   -0.6670   -0.9510 H   0  0  0  0  0  0  0  0  0  0  0  0
   -0.5840    2.3140   -1.5590 H   0  0  0  0  0  0  0  0  0  0  0  0
    0.1870    1.0260   -2.5150 H   0  0  0  0  0  0  0  0  0  0  0  0
   -2.8100    1.2290   -1.9820 H   0  0  0  0  0  0  0  0  0  0  0  0
   -1.1820    1.9020   -4.4750 H   0  0  0  0  0  0  0  0  0  0  0  0
   -2.9580    1.9170   -4.3600 H   0  0  0  0  0  0  0  0  0  0  0  0
   -1.9950    3.0800   -3.4170 H   0  0  0  0  0  0  0  0  0  0  0  0
   -1.9640   -1.0680   -2.3710 H   0  0  0  0  0  0  0  0  0  0  0  0
   -2.9400   -0.5060   -3.7490 H   0  0  0  0  0  0  0  0  0  0  0  0
   -1.1630   -0.5210   -3.8640 H   0  0  0  0  0  0  0  0  0  0  0  0
    2.9740    0.1160    1.1430 H   0  0  0  0  0  0  0  0  0  0  0  0
    4.1700   -0.6990   -1.5440 H   0  0  0  0  0  0  0  0  0  0  0  0
    5.0300   -0.7220    0.0140 H   0  0  0  0  0  0  0  0  0  0  0  0
    2.4760   -2.2970   -0.5880 H   0  0  0  0  0  0  0  0  0  0  0  0
    4.3960   -4.1760    2.3090 H   0  0  0  0  0  0  0  0  0  0  0  0
    2.8720   -4.5590    1.4550 H   0  0  0  0  0  0  0  0  0  0  0  0
    4.2080   -1.8670    1.8670 H   0  0  0  0  0  0  0  0  0  0  0  0
    2.4600   -2.2630    1.7680 H   0  0  0  0  0  0  0  0  0  0  0  0
    3.9390    1.7400   -1.2520 H   0  0  0  0  0  0  0  0  0  0  0  0
   -5.2390   -0.9370    0.7610 H   0  0  0  0  0  0  0  0  0  0  0  0
   -5.6090    0.4520   -0.2890 H   0  0  0  0  0  0  0  0  0  0  0  0
   -6.0030    1.6720    2.1590 H   0  0  0  0  0  0  0  0  0  0  0  0
   -6.6200   -1.3740    2.5790 H   0  0  0  0  0  0  0  0  0  0  0  0
   -7.0720   -0.0070    3.7310 H   0  0  0  0  0  0  0  0  0  0  0  0
   -8.4560    1.0770    1.9020 H   0  0  0  0  0  0  0  0  0  0  0  0
   -7.7670   -0.0720   -0.5140 H   0  0  0  0  0  0  0  0  0  0  0  0
   -7.6640   -1.5260    0.5080 H   0  0  0  0  0  0  0  0  0  0  0  0
   -9.9900   -1.1490    1.2790 H   0  0  0  0  0  0  0  0  0  0  0  0
  -10.0940    0.3040    0.2570 H   0  0  0  0  0  0  0  0  0  0  0  0
   -9.5810   -2.5360   -0.7350 H   0  0  0  0  0  0  0  0  0  0  0  0
  -11.1200   -1.6510   -0.8710 H   0  0  0  0  0  0  0  0  0  0  0  0
   -9.6850   -1.0830   -1.7570 H   0  0  0  0  0  0  0  0  0  0  0  0
   -1.5160    1.3810    1.0070 H   0  0  0  0  0  0  0  0  0  0  0  0
    1.7710   -0.1590   -1.5230 H   0  0  0  0  0  0  0  0  0  0  0  0
    5.0920   -5.0480    0.0760 H   0  0  0  0  0  0  0  0  0  0  0  0
    1.9300    2.6010   -0.2890 H   0  0  0  0  0  0  0  0  0  0  0  0
    5.8180    3.1030    0.5330 O   0  0  0  0  0  0  0  0  0  0  0  0
    5.0420    1.3560    2.1020 O   0  0  0  0  0  0  0  0  0  0  0  0
    6.2050    0.8420    0.1570 O   0  0  0  0  0  0  0  0  0  0  0  0
    7.0760    0.8320    0.5770 H   0  0  0  0  0  0  0  0  0  0  0  0
  5  7  1  0  0  0  0
 21 22  1  0  0  0  0
  5  6  1  0  0  0  0
  4  5  1  0  0  0  0
 20 21  1  0  0  0  0
  3  4  1  0  0  0  0
 19 20  1  0  0  0  0
  3 23  1  0  0  0  0
  2 23  1  0  0  0  0
  3  8  1  0  0  0  0
 17 19  1  0  0  0  0
 18 19  1  0  0  0  0
  2 30  1  0  0  0  0
 16 30  1  0  0  0  0
  2 26  2  0  0  0  0
 16 17  1  0  0  0  0
 17 18  1  0  0  0  0
  8 29  2  0  0  0  0
  8 24  1  0  0  0  0
  9 24  1  0  0  0  0
  1 15  1  0  0  0  0
  9 15  1  0  0  0  0
 15 28  1  0  0  0  0
  9 10  1  0  0  0  0
 10 11  1  0  0  0  0
 11 14  1  0  0  0  0
 11 12  1  0  0  0  0
 13 14  1  0  0  0  0
 13 25  1  0  0  0  0
 12 27  2  0  0  0  0
 12 25  1  0  0  0  0
  3 31  1  0  0  0  0
  4 32  1  0  0  0  0
  4 33  1  0  0  0  0
  5 34  1  0  0  0  0
  6 35  1  0  0  0  0
  6 36  1  0  0  0  0
  6 37  1  0  0  0  0
  7 38  1  0  0  0  0
  7 39  1  0  0  0  0
  7 40  1  0  0  0  0
  9 41  1  0  0  0  0
 10 42  1  0  0  0  0
 10 43  1  0  0  0  0
 11 44  1  0  0  0  0
 13 45  1  0  0  0  0
 13 46  1  0  0  0  0
 14 47  1  0  0  0  0
 14 48  1  0  0  0  0
 15 49  1  0  0  0  0
 16 50  1  0  0  0  0
 16 51  1  0  0  0  0
 17 52  1  0  0  0  0
 18 53  1  0  0  0  0
 18 54  1  0  0  0  0
 19 55  1  0  0  0  0
 20 56  1  0  0  0  0
 20 57  1  0  0  0  0
 21 58  1  0  0  0  0
 21 59  1  0  0  0  0
 22 60  1  0  0  0  0
 22 61  1  0  0  0  0
 22 62  1  0  0  0  0
 23 63  1  0  0  0  0
 24 64  1  0  0  0  0
 25 65  1  0  0  0  0
 28 66  1  0  0  0  0
  1 67  2  0  0  0  0
  1 68  2  0  0  0  0
  1 69  1  0  0  0  0
 69 70  1  0  0  0  0
M  END
> <OPENEYE_ISO_SMILES>
CCC[C@H]1C[C@H]1COC(=O)N[C@@H](CC(C)C)C(=O)N[C@@H](C[C@@H]2CCNC2=O)[C@@H](O)S(=O)(=O)O

> <OPENEYE_INCHI>
InChI=1S/C21H37N3O8S/c1-4-5-13-9-15(13)11-32-21(28)24-16(8-12(2)3)19(26)23-17(20(27)33(29,30)31)10-14-6-7-22-18(14)25/h12-17,20,27H,4-11H2,1-3H3,(H,22,25)(H,23,26)(H,24,28)(H,29,30,31)/t13-,14-,15-,16-,17-,20-/m0/s1

> <OPENEYE_INCHIKEY>
ZYXQADHLOGEXOL-QXKNQTRRSA-N

> <FORMULA>
C21H37N3O8S

$$$$
