WXA
  -OEChem-02242320043D

 41 43  0     1  0  0  0  0  0999 V2000
   -0.0990   -0.8830   -2.0380 C   0  0  0  0  0  0  0  0  0  0  0  0
   -1.3160   -0.1850   -2.6490 C   0  0  0  0  0  0  0  0  0  0  0  0
   -2.5100   -0.3270   -1.7000 C   0  0  0  0  0  0  0  0  0  0  0  0
   -2.1420    0.2670   -0.3370 C   0  0  2  0  0  0  0  0  0  0  0  0
   -4.8960    0.8090   -0.0880 C   0  0  0  0  0  0  0  0  0  0  0  0
   -0.9010   -0.4440    0.2060 C   0  0  0  0  0  0  0  0  0  0  0  0
    0.9600    3.0150    0.4110 C   0  0  0  0  0  0  0  0  0  0  0  0
    1.8520    2.4940   -0.7170 C   0  0  0  0  0  0  0  0  0  0  0  0
    2.7900    1.4470   -0.1740 C   0  0  0  0  0  0  0  0  0  0  0  0
    4.0530    1.6400    0.2400 C   0  0  0  0  0  0  0  0  0  0  0  0
    3.6670   -0.5490    0.5410 C   0  0  0  0  0  0  0  0  0  0  0  0
    2.4970    0.0260    0.0110 C   0  0  0  0  0  0  0  0  0  0  0  0
    1.3840   -0.7970   -0.2170 C   0  0  0  0  0  0  0  0  0  0  0  0
    2.6020   -2.5890    0.5770 C   0  0  0  0  0  0  0  0  0  0  0  0
    4.5880    0.4530    0.6680 N   0  0  0  0  0  0  0  0  0  0  0  0
    0.2130   -0.2780   -0.7370 N   0  0  1  0  0  0  0  0  0  0  0  0
    1.4850   -2.0900    0.0800 N   0  0  0  0  0  0  0  0  0  0  0  0
    3.6690   -1.8550    0.8060 N   0  0  0  0  0  0  0  0  0  0  0  0
   -3.7860   -1.3520    0.9380 O   0  0  0  0  0  0  0  0  0  0  0  0
   -3.2680    0.8030    1.9860 O   0  0  0  0  0  0  0  0  0  0  0  0
   -3.5240    0.0400    0.8150 S   0  0  0  0  0  0  0  0  0  0  0  0
   -0.3180   -1.9420   -1.9030 H   0  0  0  0  0  0  0  0  0  0  0  0
    0.7560   -0.7710   -2.7050 H   0  0  0  0  0  0  0  0  0  0  0  0
   -1.0930    0.8720   -2.7970 H   0  0  0  0  0  0  0  0  0  0  0  0
   -1.5570   -0.6450   -3.6070 H   0  0  0  0  0  0  0  0  0  0  0  0
   -3.3670    0.2060   -2.1100 H   0  0  0  0  0  0  0  0  0  0  0  0
   -2.7570   -1.3820   -1.5820 H   0  0  0  0  0  0  0  0  0  0  0  0
   -1.9320    1.3310   -0.4490 H   0  0  0  0  0  0  0  0  0  0  0  0
   -5.0410    0.2930   -1.0370 H   0  0  0  0  0  0  0  0  0  0  0  0
   -5.8070    0.7390    0.5070 H   0  0  0  0  0  0  0  0  0  0  0  0
   -4.6650    1.8570   -0.2760 H   0  0  0  0  0  0  0  0  0  0  0  0
   -0.6280   -0.0140    1.1700 H   0  0  0  0  0  0  0  0  0  0  0  0
   -1.1160   -1.5060    0.3310 H   0  0  0  0  0  0  0  0  0  0  0  0
    0.3820    2.1900    0.8270 H   0  0  0  0  0  0  0  0  0  0  0  0
    1.5810    3.4540    1.1920 H   0  0  0  0  0  0  0  0  0  0  0  0
    0.2820    3.7720    0.0180 H   0  0  0  0  0  0  0  0  0  0  0  0
    1.2310    2.0550   -1.4980 H   0  0  0  0  0  0  0  0  0  0  0  0
    2.4310    3.3190   -1.1340 H   0  0  0  0  0  0  0  0  0  0  0  0
    4.5690    2.5890    0.2360 H   0  0  0  0  0  0  0  0  0  0  0  0
    2.6410   -3.6450    0.8040 H   0  0  0  0  0  0  0  0  0  0  0  0
    5.4880    0.3410    1.0120 H   0  0  0  0  0  0  0  0  0  0  0  0
  1  2  1  0  0  0  0
  1 16  1  0  0  0  0
  2  3  1  0  0  0  0
  3  4  1  0  0  0  0
  4  6  1  0  0  0  0
  4 21  1  0  0  0  0
  5 21  1  0  0  0  0
  6 16  1  0  0  0  0
  7  8  1  0  0  0  0
  8  9  1  0  0  0  0
  9 10  2  0  0  0  0
  9 12  1  0  0  0  0
 10 15  1  0  0  0  0
 11 12  2  0  0  0  0
 11 15  1  0  0  0  0
 11 18  1  0  0  0  0
 12 13  1  0  0  0  0
 13 16  1  0  0  0  0
 13 17  2  0  0  0  0
 14 17  1  0  0  0  0
 14 18  2  0  0  0  0
 19 21  2  0  0  0  0
 20 21  2  0  0  0  0
  1 22  1  0  0  0  0
  1 23  1  0  0  0  0
  2 24  1  0  0  0  0
  2 25  1  0  0  0  0
  3 26  1  0  0  0  0
  3 27  1  0  0  0  0
  4 28  1  0  0  0  0
  5 29  1  0  0  0  0
  5 30  1  0  0  0  0
  5 31  1  0  0  0  0
  6 32  1  0  0  0  0
  6 33  1  0  0  0  0
  7 34  1  0  0  0  0
  7 35  1  0  0  0  0
  7 36  1  0  0  0  0
  8 37  1  0  0  0  0
  8 38  1  0  0  0  0
 10 39  1  0  0  0  0
 14 40  1  0  0  0  0
 15 41  1  0  0  0  0
M  END
> <OPENEYE_ISO_SMILES>
CCc1c[nH]c2c1c(ncn2)[N@]3CCC[C@H](C3)S(=O)(=O)C

> <OPENEYE_INCHI>
InChI=1S/C14H20N4O2S/c1-3-10-7-15-13-12(10)14(17-9-16-13)18-6-4-5-11(8-18)21(2,19)20/h7,9,11H,3-6,8H2,1-2H3,(H,15,16,17)/t11-/m1/s1

> <OPENEYE_INCHIKEY>
KOOLXXAPHSXXFR-LLVKDONJSA-N

> <FORMULA>
C14H20N4O2S

$$$$
