WXD
  -OEChem-02242320043D

 41 43  0     1  0  0  0  0  0999 V2000
    1.3390   -0.6890    0.4220 C   0  0  0  0  0  0  0  0  0  0  0  0
   -1.3100    0.9280    2.4100 C   0  0  0  0  0  0  0  0  0  0  0  0
   -2.1700    0.3970    0.1280 C   0  0  1  0  0  0  0  0  0  0  0  0
   -4.8830    0.9330   -0.4140 C   0  0  0  0  0  0  0  0  0  0  0  0
    2.4350   -0.0710   -0.1990 C   0  0  0  0  0  0  0  0  0  0  0  0
    1.9280    3.1650    0.6970 C   0  0  0  0  0  0  0  0  0  0  0  0
    1.7950    2.4630   -0.6550 C   0  0  0  0  0  0  0  0  0  0  0  0
    2.7200    1.2740   -0.6970 C   0  0  0  0  0  0  0  0  0  0  0  0
    3.9670    1.2460   -1.1970 C   0  0  0  0  0  0  0  0  0  0  0  0
    3.5880   -0.8360   -0.4520 C   0  0  0  0  0  0  0  0  0  0  0  0
    2.5420   -2.6570    0.4900 C   0  0  0  0  0  0  0  0  0  0  0  0
   -0.1130    0.0160    2.1310 C   0  0  0  0  0  0  0  0  0  0  0  0
   -2.5220    0.4280    1.6180 C   0  0  0  0  0  0  0  0  0  0  0  0
   -0.9480   -0.4990   -0.0850 C   0  0  0  0  0  0  0  0  0  0  0  0
    4.4960   -0.0110   -1.0560 N   0  0  0  0  0  0  0  0  0  0  0  0
    3.5920   -2.1190   -0.0910 N   0  0  0  0  0  0  0  0  0  0  0  0
    1.4420   -1.9740    0.7500 N   0  0  0  0  0  0  0  0  0  0  0  0
    0.1830    0.0210    0.6930 N   0  0  2  0  0  0  0  0  0  0  0  0
   -3.2790   -0.1600   -2.1990 O   0  0  0  0  0  0  0  0  0  0  0  0
   -3.9340   -1.5230   -0.2690 O   0  0  0  0  0  0  0  0  0  0  0  0
   -3.5760   -0.2600   -0.8130 S   0  0  0  0  0  0  0  0  0  0  0  0
   -1.5400    0.9110    3.4750 H   0  0  0  0  0  0  0  0  0  0  0  0
   -1.0710    1.9460    2.1050 H   0  0  0  0  0  0  0  0  0  0  0  0
   -1.9440    1.4080   -0.2140 H   0  0  0  0  0  0  0  0  0  0  0  0
   -5.8020    0.6490   -0.9270 H   0  0  0  0  0  0  0  0  0  0  0  0
   -5.0540    0.9390    0.6620 H   0  0  0  0  0  0  0  0  0  0  0  0
   -4.5790    1.9280   -0.7390 H   0  0  0  0  0  0  0  0  0  0  0  0
    1.1960    3.9710    0.7610 H   0  0  0  0  0  0  0  0  0  0  0  0
    1.7500    2.4480    1.4980 H   0  0  0  0  0  0  0  0  0  0  0  0
    2.9320    3.5780    0.7950 H   0  0  0  0  0  0  0  0  0  0  0  0
    0.7670    2.1270   -0.7910 H   0  0  0  0  0  0  0  0  0  0  0  0
    2.0590    3.1570   -1.4530 H   0  0  0  0  0  0  0  0  0  0  0  0
    4.4750    2.0880   -1.6430 H   0  0  0  0  0  0  0  0  0  0  0  0
    2.5840   -3.6980    0.7720 H   0  0  0  0  0  0  0  0  0  0  0  0
    0.7550    0.3770    2.6820 H   0  0  0  0  0  0  0  0  0  0  0  0
   -0.3490   -1.0000    2.4490 H   0  0  0  0  0  0  0  0  0  0  0  0
   -2.7860   -0.5760    1.9500 H   0  0  0  0  0  0  0  0  0  0  0  0
   -3.3650    1.1000    1.7790 H   0  0  0  0  0  0  0  0  0  0  0  0
   -1.1800   -1.5120    0.2440 H   0  0  0  0  0  0  0  0  0  0  0  0
   -0.6870   -0.5120   -1.1430 H   0  0  0  0  0  0  0  0  0  0  0  0
    5.3830   -0.2760   -1.3440 H   0  0  0  0  0  0  0  0  0  0  0  0
 11 16  2  0  0  0  0
 10 16  1  0  0  0  0
 11 17  1  0  0  0  0
 10 15  1  0  0  0  0
  5 10  2  0  0  0  0
  9 15  1  0  0  0  0
  1 17  2  0  0  0  0
  1  5  1  0  0  0  0
  5  8  1  0  0  0  0
  1 18  1  0  0  0  0
  8  9  2  0  0  0  0
  7  8  1  0  0  0  0
 14 18  1  0  0  0  0
 12 18  1  0  0  0  0
  3 14  1  0  0  0  0
 20 21  2  0  0  0  0
  2 12  1  0  0  0  0
 19 21  2  0  0  0  0
  6  7  1  0  0  0  0
  3 21  1  0  0  0  0
  4 21  1  0  0  0  0
  3 13  1  0  0  0  0
  2 13  1  0  0  0  0
  2 22  1  0  0  0  0
  2 23  1  0  0  0  0
  3 24  1  0  0  0  0
  4 25  1  0  0  0  0
  4 26  1  0  0  0  0
  4 27  1  0  0  0  0
  6 28  1  0  0  0  0
  6 29  1  0  0  0  0
  6 30  1  0  0  0  0
  7 31  1  0  0  0  0
  7 32  1  0  0  0  0
  9 33  1  0  0  0  0
 11 34  1  0  0  0  0
 12 35  1  0  0  0  0
 12 36  1  0  0  0  0
 13 37  1  0  0  0  0
 13 38  1  0  0  0  0
 14 39  1  0  0  0  0
 14 40  1  0  0  0  0
 15 41  1  0  0  0  0
M  END
> <OPENEYE_ISO_SMILES>
CCc1c[nH]c2c1c(ncn2)[N@@]3CCC[C@@H](C3)S(=O)(=O)C

> <OPENEYE_INCHI>
InChI=1S/C14H20N4O2S/c1-3-10-7-15-13-12(10)14(17-9-16-13)18-6-4-5-11(8-18)21(2,19)20/h7,9,11H,3-6,8H2,1-2H3,(H,15,16,17)/t11-/m0/s1

> <OPENEYE_INCHIKEY>
KOOLXXAPHSXXFR-NSHDSACASA-N

> <FORMULA>
C14H20N4O2S

$$$$
