NCA
  -OEChem-02242320033D

 15 15  0     0  0  0  0  0  0999 V2000
    1.1980   -0.0010   -1.8050 N   0  0  0  0  0  0  0  0  0  0  0  0
    1.1720    0.0040   -0.4890 C   0  0  0  0  0  0  0  0  0  0  0  0
   -0.0420   -0.0000    0.1960 C   0  0  0  0  0  0  0  0  0  0  0  0
   -1.2330    0.0000   -0.5380 C   0  0  0  0  0  0  0  0  0  0  0  0
   -1.1510    0.0000   -1.9200 C   0  0  0  0  0  0  0  0  0  0  0  0
    0.0920   -0.0000   -2.5240 C   0  0  0  0  0  0  0  0  0  0  0  0
   -0.0710   -0.0000    1.6740 C   0  0  0  0  0  0  0  0  0  0  0  0
   -1.1350    0.0000    2.2610 O   0  0  0  0  0  0  0  0  0  0  0  0
    1.0820   -0.0010    2.3710 N   0  0  0  0  0  0  0  0  0  0  0  0
    2.1000    0.0030    0.0640 H   0  0  0  0  0  0  0  0  0  0  0  0
   -2.1920    0.0000   -0.0400 H   0  0  0  0  0  0  0  0  0  0  0  0
   -2.0490    0.0000   -2.5190 H   0  0  0  0  0  0  0  0  0  0  0  0
    0.1590   -0.0000   -3.6020 H   0  0  0  0  0  0  0  0  0  0  0  0
    1.0630   -0.0010    3.3410 H   0  0  0  0  0  0  0  0  0  0  0  0
    1.9310   -0.0050    1.9020 H   0  0  0  0  0  0  0  0  0  0  0  0
  1  2  2  0  0  0  0
  1  6  1  0  0  0  0
  2  3  1  0  0  0  0
  2 10  1  0  0  0  0
  3  4  2  0  0  0  0
  3  7  1  0  0  0  0
  4  5  1  0  0  0  0
  4 11  1  0  0  0  0
  5  6  2  0  0  0  0
  5 12  1  0  0  0  0
  6 13  1  0  0  0  0
  7  8  2  0  0  0  0
  7  9  1  0  0  0  0
  9 14  1  0  0  0  0
  9 15  1  0  0  0  0
M  END
> <OPENEYE_ISO_SMILES>
c1cc(cnc1)C(=O)N

> <OPENEYE_INCHI>
InChI=1S/C6H6N2O/c7-6(9)5-2-1-3-8-4-5/h1-4H,(H2,7,9)

> <OPENEYE_INCHIKEY>
DFPAKSUCGFBDDF-UHFFFAOYSA-N

> <FORMULA>
C6H6N2O

$$$$
