RK9
  -OEChem-02242320043D

 37 38  0     0  0  0  0  0  0999 V2000
   -3.5090    1.1330   -1.7960 C   0  0  0  0  0  0  0  0  0  0  0  0
   -2.8220   -0.0870    0.1580 C   0  0  0  0  0  0  0  0  0  0  0  0
   -3.1270   -0.0530   -1.1980 C   0  0  0  0  0  0  0  0  0  0  0  0
    0.1940   -1.3930   -0.0430 C   0  0  0  0  0  0  0  0  0  0  0  0
   -3.2770    2.2710    0.3090 C   0  0  0  0  0  0  0  0  0  0  0  0
   -3.5860    2.2930   -1.0520 C   0  0  0  0  0  0  0  0  0  0  0  0
    6.5650    1.8810    0.3320 C   0  0  0  0  0  0  0  0  0  0  0  0
    5.4300    1.8670   -0.6930 C   0  0  0  0  0  0  0  0  0  0  0  0
    4.3230    0.9690   -0.2050 C   0  0  0  0  0  0  0  0  0  0  0  0
    2.1910   -0.0270   -0.5000 C   0  0  0  0  0  0  0  0  0  0  0  0
    1.1480   -1.4230    0.8900 C   0  0  0  0  0  0  0  0  0  0  0  0
    1.0270   -2.2380    2.1520 C   0  0  0  0  0  0  0  0  0  0  0  0
   -3.3620    3.4720    1.0850 C   0  0  0  0  0  0  0  0  0  0  0  0
   -2.9020    1.0710    0.9150 C   0  0  0  0  0  0  0  0  0  0  0  0
    3.2120    0.8020   -0.9500 N   0  0  0  0  0  0  0  0  0  0  0  0
    2.2050   -0.6820    0.6190 N   0  0  0  0  0  0  0  0  0  0  0  0
   -2.4370   -1.2880    0.7570 N   0  0  0  0  0  0  0  0  0  0  0  0
   -3.4290    4.4250    1.7000 N   0  0  0  0  0  0  0  0  0  0  0  0
    4.4310    0.3960    0.8590 O   0  0  0  0  0  0  0  0  0  0  0  0
   -1.7640   -2.4050   -1.3380 O   0  0  0  0  0  0  0  0  0  0  0  0
   -1.1300   -3.3780    0.8750 O   0  0  0  0  0  0  0  0  0  0  0  0
    0.7330   -0.3290   -1.3390 S   0  0  0  0  0  0  0  0  0  0  0  0
   -1.3330   -2.2700    0.0090 S   0  0  0  0  0  0  0  0  0  0  0  0
   -3.7440    1.1530   -2.8500 H   0  0  0  0  0  0  0  0  0  0  0  0
   -3.0650   -0.9560   -1.7870 H   0  0  0  0  0  0  0  0  0  0  0  0
   -3.8850    3.2180   -1.5230 H   0  0  0  0  0  0  0  0  0  0  0  0
    6.1890    2.2530    1.2850 H   0  0  0  0  0  0  0  0  0  0  0  0
    6.9490    0.8690    0.4630 H   0  0  0  0  0  0  0  0  0  0  0  0
    7.3660    2.5300   -0.0210 H   0  0  0  0  0  0  0  0  0  0  0  0
    5.0460    2.8780   -0.8250 H   0  0  0  0  0  0  0  0  0  0  0  0
    5.8060    1.4940   -1.6460 H   0  0  0  0  0  0  0  0  0  0  0  0
    1.4360   -3.2340    1.9820 H   0  0  0  0  0  0  0  0  0  0  0  0
    1.5800   -1.7500    2.9540 H   0  0  0  0  0  0  0  0  0  0  0  0
   -0.0230   -2.3200    2.4320 H   0  0  0  0  0  0  0  0  0  0  0  0
   -2.6620    1.0480    1.9680 H   0  0  0  0  0  0  0  0  0  0  0  0
    3.1260    1.2590   -1.8010 H   0  0  0  0  0  0  0  0  0  0  0  0
   -2.8160   -1.5480    1.6120 H   0  0  0  0  0  0  0  0  0  0  0  0
 13 18  3  0  0  0  0
  5 13  1  0  0  0  0
  5  6  2  0  0  0  0
  1  6  1  0  0  0  0
  5 14  1  0  0  0  0
  1  3  2  0  0  0  0
  2 14  2  0  0  0  0
  2  3  1  0  0  0  0
  2 17  1  0  0  0  0
 20 23  2  0  0  0  0
 17 23  1  0  0  0  0
 21 23  2  0  0  0  0
  4 23  1  0  0  0  0
  4 22  1  0  0  0  0
 10 22  1  0  0  0  0
  4 11  2  0  0  0  0
  9 19  2  0  0  0  0
 11 12  1  0  0  0  0
 11 16  1  0  0  0  0
 10 16  2  0  0  0  0
 10 15  1  0  0  0  0
  9 15  1  0  0  0  0
  8  9  1  0  0  0  0
  7  8  1  0  0  0  0
  1 24  1  0  0  0  0
  3 25  1  0  0  0  0
  6 26  1  0  0  0  0
  7 27  1  0  0  0  0
  7 28  1  0  0  0  0
  7 29  1  0  0  0  0
  8 30  1  0  0  0  0
  8 31  1  0  0  0  0
 12 32  1  0  0  0  0
 12 33  1  0  0  0  0
 12 34  1  0  0  0  0
 14 35  1  0  0  0  0
 15 36  1  0  0  0  0
 17 37  1  0  0  0  0
M  END
> <OPENEYE_ISO_SMILES>
CCC(=O)Nc1nc(c(s1)S(=O)(=O)Nc2cccc(c2)C#N)C

> <OPENEYE_INCHI>
InChI=1S/C14H14N4O3S2/c1-3-12(19)17-14-16-9(2)13(22-14)23(20,21)18-11-6-4-5-10(7-11)8-15/h4-7,18H,3H2,1-2H3,(H,16,17,19)

> <OPENEYE_INCHIKEY>
AUZRVQWOOJLPJO-UHFFFAOYSA-N

> <FORMULA>
C14H14N4O3S2

$$$$
