I54
  -OEChem-02242320023D

 64 65  0     1  0  0  0  0  0999 V2000
   -6.0740   -0.3670   -0.7970 C   0  0  0  0  0  0  0  0  0  0  0  0
   -5.7800   -1.5440   -1.4590 C   0  0  0  0  0  0  0  0  0  0  0  0
   -6.7780   -2.2270   -2.1290 C   0  0  0  0  0  0  0  0  0  0  0  0
   -8.0690   -1.7330   -2.1370 C   0  0  0  0  0  0  0  0  0  0  0  0
   -8.3640   -0.5570   -1.4750 C   0  0  0  0  0  0  0  0  0  0  0  0
   -7.3670    0.1240   -0.7990 C   0  0  0  0  0  0  0  0  0  0  0  0
   -4.9860    0.3780   -0.0670 C   0  0  0  0  0  0  0  0  0  0  0  0
   -2.6500    0.1980    0.3910 C   0  0  0  0  0  0  0  0  0  0  0  0
   -0.2790    0.1670    0.9510 C   0  0  1  0  0  0  0  0  0  0  0  0
   -0.2320   -0.2790    2.4140 C   0  0  0  0  0  0  0  0  0  0  0  0
   -1.4360    0.2960    3.1610 C   0  0  0  0  0  0  0  0  0  0  0  0
   -1.4580   -0.2500    4.5900 C   0  0  0  0  0  0  0  0  0  0  0  0
   -1.3310    1.8220    3.2000 C   0  0  0  0  0  0  0  0  0  0  0  0
    0.9690   -0.2960    0.2440 C   0  0  0  0  0  0  0  0  0  0  0  0
    3.3910   -0.3330   -0.0160 C   0  0  2  0  0  0  0  0  0  0  0  0
    3.9150   -1.6040    0.6550 C   0  0  1  0  0  0  0  0  0  0  0  0
    4.4570    0.7620    0.0620 C   0  0  0  0  0  0  0  0  0  0  0  0
    3.9490    2.0200   -0.6450 C   0  0  2  0  0  0  0  0  0  0  0  0
    3.7900    1.7610   -2.1610 C   0  0  0  0  0  0  0  0  0  0  0  0
    4.2230    3.1190   -2.7590 C   0  0  0  0  0  0  0  0  0  0  0  0
    4.9770    3.1260   -0.5600 C   0  0  0  0  0  0  0  0  0  0  0  0
   -7.7360    1.6020    0.0340 Cl  0  0  0  0  0  0  0  0  0  0  0  0
   -1.4540   -0.4170    0.3000 N   0  0  0  0  0  0  0  0  0  0  0  0
    2.1780    0.1170    0.6710 N   0  0  0  0  0  0  0  0  0  0  0  0
    5.1150    3.7200   -1.7610 N   0  0  0  0  0  0  0  0  0  0  0  0
   -2.7540    1.2370    1.0140 O   0  0  0  0  0  0  0  0  0  0  0  0
    0.8840   -1.0400   -0.7100 O   0  0  0  0  0  0  0  0  0  0  0  0
    2.8750   -2.5830    0.7000 O   0  0  0  0  0  0  0  0  0  0  0  0
    5.5870    3.4320    0.4430 O   0  0  0  0  0  0  0  0  0  0  0  0
   -3.7310   -0.3380   -0.2070 O   0  0  0  0  0  0  0  0  0  0  0  0
   -4.7720   -1.9300   -1.4540 H   0  0  0  0  0  0  0  0  0  0  0  0
   -6.5490   -3.1470   -2.6470 H   0  0  0  0  0  0  0  0  0  0  0  0
   -8.8480   -2.2670   -2.6620 H   0  0  0  0  0  0  0  0  0  0  0  0
   -9.3730   -0.1710   -1.4820 H   0  0  0  0  0  0  0  0  0  0  0  0
   -4.8830    1.3780   -0.4890 H   0  0  0  0  0  0  0  0  0  0  0  0
   -5.2440    0.4550    0.9890 H   0  0  0  0  0  0  0  0  0  0  0  0
   -0.3410    1.2550    0.9040 H   0  0  0  0  0  0  0  0  0  0  0  0
   -0.2600   -1.3670    2.4620 H   0  0  0  0  0  0  0  0  0  0  0  0
    0.6880    0.0820    2.8740 H   0  0  0  0  0  0  0  0  0  0  0  0
   -2.3540    0.0080    2.6480 H   0  0  0  0  0  0  0  0  0  0  0  0
   -0.5400    0.0380    5.1030 H   0  0  0  0  0  0  0  0  0  0  0  0
   -2.3160    0.1600    5.1230 H   0  0  0  0  0  0  0  0  0  0  0  0
   -1.5330   -1.3370    4.5630 H   0  0  0  0  0  0  0  0  0  0  0  0
   -0.4140    2.1110    3.7130 H   0  0  0  0  0  0  0  0  0  0  0  0
   -1.3160    2.2110    2.1820 H   0  0  0  0  0  0  0  0  0  0  0  0
   -2.1890    2.2320    3.7330 H   0  0  0  0  0  0  0  0  0  0  0  0
    3.1610   -0.5420   -1.0600 H   0  0  0  0  0  0  0  0  0  0  0  0
    4.2400   -1.3720    1.6690 H   0  0  0  0  0  0  0  0  0  0  0  0
    4.6670    0.9910    1.1070 H   0  0  0  0  0  0  0  0  0  0  0  0
    5.3700    0.4150   -0.4240 H   0  0  0  0  0  0  0  0  0  0  0  0
    3.0030    2.3430   -0.2120 H   0  0  0  0  0  0  0  0  0  0  0  0
    4.4520    0.9610   -2.4920 H   0  0  0  0  0  0  0  0  0  0  0  0
    2.7540    1.5370   -2.4120 H   0  0  0  0  0  0  0  0  0  0  0  0
    4.7560    2.9650   -3.6970 H   0  0  0  0  0  0  0  0  0  0  0  0
    3.3520    3.7550   -2.9200 H   0  0  0  0  0  0  0  0  0  0  0  0
   -1.3720   -1.2450   -0.1970 H   0  0  0  0  0  0  0  0  0  0  0  0
    2.2460    0.7130    1.4340 H   0  0  0  0  0  0  0  0  0  0  0  0
    5.7250    4.4520   -1.9420 H   0  0  0  0  0  0  0  0  0  0  0  0
    5.3170   -2.2550   -0.2950 S   0  0  0  0  0  0  0  0  0  0  0  0
    5.8370   -3.4250    0.3220 O   0  0  0  0  0  0  0  0  0  0  0  0
    5.0340   -2.2250   -1.6870 O   0  0  0  0  0  0  0  0  0  0  0  0
    6.4140   -1.2160   -0.1120 O   0  0  0  0  0  0  0  0  0  0  0  0
    2.0920   -2.3020    1.1930 H   0  0  0  0  0  0  0  0  0  0  0  0
    7.2390   -1.4300   -0.5700 H   0  0  0  0  0  0  0  0  0  0  0  0
 20 25  1  0  0  0  0
 21 25  1  0  0  0  0
 21 29  2  0  0  0  0
 19 20  1  0  0  0  0
 18 21  1  0  0  0  0
 18 19  1  0  0  0  0
 17 18  1  0  0  0  0
 15 17  1  0  0  0  0
 16 28  1  0  0  0  0
  4  5  2  0  0  0  0
  5  6  1  0  0  0  0
 15 16  1  0  0  0  0
 15 24  1  0  0  0  0
  6 22  1  0  0  0  0
  3  4  1  0  0  0  0
  1  6  2  0  0  0  0
 14 24  1  0  0  0  0
  2  3  2  0  0  0  0
  1  2  1  0  0  0  0
  1  7  1  0  0  0  0
 14 27  2  0  0  0  0
  9 14  1  0  0  0  0
  8 26  2  0  0  0  0
  7 30  1  0  0  0  0
  8 30  1  0  0  0  0
  8 23  1  0  0  0  0
  9 23  1  0  0  0  0
  9 10  1  0  0  0  0
 10 11  1  0  0  0  0
 11 13  1  0  0  0  0
 11 12  1  0  0  0  0
  2 31  1  0  0  0  0
  3 32  1  0  0  0  0
  4 33  1  0  0  0  0
  5 34  1  0  0  0  0
  7 35  1  0  0  0  0
  7 36  1  0  0  0  0
  9 37  1  0  0  0  0
 10 38  1  0  0  0  0
 10 39  1  0  0  0  0
 11 40  1  0  0  0  0
 12 41  1  0  0  0  0
 12 42  1  0  0  0  0
 12 43  1  0  0  0  0
 13 44  1  0  0  0  0
 13 45  1  0  0  0  0
 13 46  1  0  0  0  0
 15 47  1  0  0  0  0
 16 48  1  0  0  0  0
 17 49  1  0  0  0  0
 17 50  1  0  0  0  0
 18 51  1  0  0  0  0
 19 52  1  0  0  0  0
 19 53  1  0  0  0  0
 20 54  1  0  0  0  0
 20 55  1  0  0  0  0
 23 56  1  0  0  0  0
 24 57  1  0  0  0  0
 25 58  1  0  0  0  0
 16 59  1  0  0  0  0
 59 60  2  0  0  0  0
 59 61  2  0  0  0  0
 59 62  1  0  0  0  0
 28 63  1  0  0  0  0
 62 64  1  0  0  0  0
M  END
> <OPENEYE_ISO_SMILES>
CC(C)C[C@@H](C(=O)N[C@@H](C[C@@H]1CCNC1=O)[C@@H](O)S(=O)(=O)O)NC(=O)OCc2ccccc2Cl

> <OPENEYE_INCHI>
InChI=1S/C21H30ClN3O8S/c1-12(2)9-16(25-21(29)33-11-14-5-3-4-6-15(14)22)19(27)24-17(20(28)34(30,31)32)10-13-7-8-23-18(13)26/h3-6,12-13,16-17,20,28H,7-11H2,1-2H3,(H,23,26)(H,24,27)(H,25,29)(H,30,31,32)/t13-,16-,17-,20-/m0/s1

> <OPENEYE_INCHIKEY>
VHSJYWSZMIFGBF-FDRFZEDHSA-N

> <FORMULA>
C21H30ClN3O8S

$$$$
