W0Y
  -OEChem-02242320043D

 24 24  0     0  0  0  0  0  0999 V2000
    3.4090   -0.1240    1.4800 N   0  0  0  0  0  0  0  0  0  0  0  0
    0.5170    1.2610   -0.0400 C   0  0  0  0  0  0  0  0  0  0  0  0
    1.1330    0.0220   -0.0610 C   0  0  0  0  0  0  0  0  0  0  0  0
    0.3740   -1.1350   -0.0560 C   0  0  0  0  0  0  0  0  0  0  0  0
   -1.0030   -1.0600   -0.0320 C   0  0  0  0  0  0  0  0  0  0  0  0
    3.3560    1.1450   -0.6360 O   0  0  0  0  0  0  0  0  0  0  0  0
    2.8910   -0.0830   -0.0930 S   0  0  0  0  0  0  0  0  0  0  0  0
    3.2080   -1.3500   -0.6530 O   0  0  0  0  0  0  0  0  0  0  0  0
   -0.8600    1.3500   -0.0150 C   0  0  0  0  0  0  0  0  0  0  0  0
   -1.6310    0.1870   -0.0110 C   0  0  0  0  0  0  0  0  0  0  0  0
   -3.1070    0.2740    0.0150 C   0  0  0  0  0  0  0  0  0  0  0  0
   -3.6510    1.3610    0.0330 O   0  0  0  0  0  0  0  0  0  0  0  0
   -3.8490   -0.8510    0.0190 N   0  0  0  0  0  0  0  0  0  0  0  0
   -5.3110   -0.7640    0.0450 C   0  0  0  0  0  0  0  0  0  0  0  0
    2.7640   -0.0900    2.2040 H   0  0  0  0  0  0  0  0  0  0  0  0
    4.3570   -0.1860    1.6770 H   0  0  0  0  0  0  0  0  0  0  0  0
    1.1150    2.1600   -0.0390 H   0  0  0  0  0  0  0  0  0  0  0  0
    0.8610   -2.0990   -0.0730 H   0  0  0  0  0  0  0  0  0  0  0  0
   -1.5950   -1.9640   -0.0290 H   0  0  0  0  0  0  0  0  0  0  0  0
   -1.3390    2.3170    0.0000 H   0  0  0  0  0  0  0  0  0  0  0  0
   -3.4150   -1.7180    0.0050 H   0  0  0  0  0  0  0  0  0  0  0  0
   -5.6280   -0.2360    0.9450 H   0  0  0  0  0  0  0  0  0  0  0  0
   -5.6580   -0.2220   -0.8350 H   0  0  0  0  0  0  0  0  0  0  0  0
   -5.7350   -1.7680    0.0450 H   0  0  0  0  0  0  0  0  0  0  0  0
  6  7  2  0  0  0  0
  7  8  2  0  0  0  0
  1  7  1  0  0  0  0
  3  7  1  0  0  0  0
  2  3  2  0  0  0  0
  2  9  1  0  0  0  0
  3  4  1  0  0  0  0
  9 10  2  0  0  0  0
  4  5  2  0  0  0  0
  5 10  1  0  0  0  0
 10 11  1  0  0  0  0
 11 12  2  0  0  0  0
 11 13  1  0  0  0  0
 13 14  1  0  0  0  0
  1 15  1  0  0  0  0
  1 16  1  0  0  0  0
  2 17  1  0  0  0  0
  4 18  1  0  0  0  0
  5 19  1  0  0  0  0
  9 20  1  0  0  0  0
 13 21  1  0  0  0  0
 14 22  1  0  0  0  0
 14 23  1  0  0  0  0
 14 24  1  0  0  0  0
M  END
> <OPENEYE_ISO_SMILES>
CNC(=O)c1ccc(cc1)S(=O)(=O)N

> <OPENEYE_INCHI>
InChI=1S/C8H10N2O3S/c1-10-8(11)6-2-4-7(5-3-6)14(9,12)13/h2-5H,1H3,(H,10,11)(H2,9,12,13)

> <OPENEYE_INCHIKEY>
CTDFBRMMEMHBEO-UHFFFAOYSA-N

> <FORMULA>
C8H10N2O3S

$$$$
