@<TRIPOS>MOLECULE
/home/pku/3cl/gett_pdb/5SOT/5SOT_mol2/ligand/5SOT_WX4.pdb
 39 42 0 0 0
SMALL
GASTEIGER

@<TRIPOS>ATOM
      1  C10      -43.4730  -28.3910    0.8670 C.3   201  WX4201     -0.0381
      2  N12      -44.8770  -29.0300    2.8990 N.3   201  WX4201     -0.2695
      3  C13      -45.9100  -28.7160    1.8270 C.3   201  WX4201      0.0239
      4  C20      -48.5430  -28.8300    5.6470 C.ar  201  WX4201      0.0038
      5  C21      -47.7380  -28.8590    4.5160 C.ar  201  WX4201     -0.0355
      6  C22      -46.3890  -28.9720    4.9250 C.ar  201  WX4201      0.0397
      7  C02      -47.0770  -34.3380    0.8570 C.3   201  WX4201      0.0894
      8  C03      -46.2820  -33.0580    1.0560 C.ar  201  WX4201      0.1081
      9  C04      -46.5830  -31.8200    0.5030 C.ar  201  WX4201      0.0513
     10  C08      -45.6170  -29.5230    0.5540 C.3   201  WX4201      0.0671
     11  C09      -44.3560  -29.1720    0.0040 C.3   201  WX4201     -0.0281
     12  C11      -43.4780  -28.8740    2.3230 C.3   201  WX4201      0.0016
     13  C14      -45.0960  -29.0430    4.3280 C.3   201  WX4201      0.1875
     14  C16      -44.1390  -29.1860    6.4200 C.2   201  WX4201      0.1048
     15  C18      -46.4670  -29.0060    6.2890 C.ar  201  WX4201      0.1286
     16  N05      -45.6650  -30.9850    0.9100 N.ar  201  WX4201     -0.2471
     17  N06      -44.7850  -31.6270    1.7130 N.ar  201  WX4201     -0.0651
     18  N07      -45.1790  -32.9300    1.7940 N.ar  201  WX4201     -0.1322
     19  N15      -44.0200  -29.1580    5.1030 N.2   201  WX4201     -0.2432
     20  N17      -45.3180  -29.1190    6.9840 N.pl3 201  WX4201     -0.1859
     21  N19      -47.7620  -28.9200    6.7090 N.ar  201  WX4201     -0.3479
     22  O01      -46.3580  -35.1490   -0.0270 O.3   201  WX4201     -0.3888
     23 H101      -43.7850  -27.3490    0.8340 H     201  WX4201      0.0278
     24 H102      -42.4500  -28.4310    0.4970 H     201  WX4201      0.0278
     25 H132      -46.8780  -29.0570    2.1340 H     201  WX4201      0.0448
     26 H131      -45.9430  -27.6380    1.6420 H     201  WX4201      0.0448
     27 H201      -49.6160  -28.7520    5.6540 H     201  WX4201      0.0807
     28 H211      -48.0860  -28.8120    3.4970 H     201  WX4201      0.0637
     29 H021      -48.0570  -34.0940    0.4590 H     201  WX4201      0.0624
     30 H022      -47.1850  -34.8480    1.8110 H     201  WX4201      0.0624
     31 H041      -47.4130  -31.5870   -0.1570 H     201  WX4201      0.0846
     32 H081      -46.3730  -29.2660   -0.1970 H     201  WX4201      0.0558
     33 H091      -44.8060  -28.4830   -0.6660 H     201  WX4201      0.0286
     34 H092      -43.8320  -30.0020   -0.5220 H     201  WX4201      0.0286
     35 H111      -42.9760  -29.8290    2.3590 H     201  WX4201      0.0427
     36 H112      -42.9310  -28.1630    2.9370 H     201  WX4201      0.0427
     37 H161      -43.2630  -29.2780    7.0490 H     201  WX4201      0.1015
     38 H191      -48.0740  -28.9230    7.6630 H     201  WX4201      0.1666
     39 H011      -46.8100  -35.9670   -0.1270 H     201  WX4201      0.2099
@<TRIPOS>BOND
     1    33    11    1
     2    34    11    1
     3    32    10    1
     4    31     9    1
     5    39    22    1
     6    22     7    1
     7    11    10    1
     8    11     1    1
     9    29     7    1
    10    24     1    1
    11     9    16   ar
    12     9     8   ar
    13    10    16    1
    14    10     3    1
    15    23     1    1
    16     7     8    1
    17     7    30    1
    18     1    12    1
    19    16    17   ar
    20     8    18   ar
    21    26     3    1
    22    17    18   ar
    23     3    25    1
    24     3     2    1
    25    12    35    1
    26    12     2    1
    27    12    36    1
    28     2    13    1
    29    28     5    1
    30    13     6    1
    31    13    19    1
    32     5     6   ar
    33     5     4   ar
    34     6    15   ar
    35    19    14    2
    36     4    27    1
    37     4    21   ar
    38    15    21   ar
    39    15    20    1
    40    14    20    1
    41    14    37    1
    42    21    38    1
