@<TRIPOS>MOLECULE
/home/pku/3cl/gett_pdb/5SSC/5SSC_mol2/ligand/5SSC_RNC.pdb
 32 34 0 0 0
SMALL
GASTEIGER

@<TRIPOS>ATOM
      1  C18      -41.8080  -30.2820    2.2310 C.ar  201  RNC201      0.4164
      2  C15      -43.8160  -30.7350    1.7040 C.ar  201  RNC201      0.1813
      3  C14      -45.9280  -29.4970    0.7880 C.3   201  RNC201      0.0263
      4  C13      -45.2980  -30.5960    1.5520 C.3   201  RNC201      0.0539
      5  C12      -45.9060  -30.0690    2.8040 C.3   201  RNC201      0.0263
      6  C01      -52.5390  -29.6340    6.4740 C.3   201  RNC201     -0.0011
      7  C03      -50.3380  -29.1650    5.5070 C.ar  201  RNC201      0.1368
      8  C04      -48.9530  -29.1360    5.5400 C.ar  201  RNC201      0.0681
      9  C06      -48.9080  -28.9110    3.3050 C.ar  201  RNC201      0.1436
     10  C07      -50.2910  -28.9160    3.2670 C.ar  201  RNC201      0.0602
     11  C09      -48.1700  -28.8120    1.9960 C.2   201  RNC201      0.2665
     12  N02      -51.1450  -29.3060    6.6790 N.pl3 201  RNC201     -0.3309
     13  N05      -48.2500  -29.0180    4.4360 N.ar  201  RNC201     -0.2454
     14  N08      -50.9780  -29.0550    4.3720 N.ar  201  RNC201     -0.2367
     15  N11      -46.8660  -29.3740    1.9140 N.am  201  RNC201     -0.2948
     16  N16      -43.0630  -31.7320    1.2520 N.ar  201  RNC201     -0.0571
     17  N20      -43.0510  -29.8200    2.3130 N.ar  201  RNC201     -0.1581
     18  O10      -48.6450  -28.3730    1.0100 O.2   201  RNC201     -0.2683
     19  O17      -41.8230  -31.4290    1.5890 O.2   201  RNC201     -0.2966
     20  O19      -40.6680  -29.6840    2.7350 O.3   201  RNC201     -0.4640
     21 H142      -46.4390  -29.8390   -0.1010 H     201  RNC201      0.0472
     22 H141      -45.3040  -28.6210    0.6490 H     201  RNC201      0.0472
     23 H131      -45.7360  -31.5390    1.2760 H     201  RNC201      0.0411
     24 H122      -45.2760  -29.3790    3.3710 H     201  RNC201      0.0472
     25 H121      -46.3830  -30.8290    3.3940 H     201  RNC201      0.0472
     26 H013      -52.9700  -29.9630    7.4070 H     201  RNC201      0.0426
     27 H011      -52.6190  -30.4320    5.7340 H     201  RNC201      0.0426
     28 H012      -53.0690  -28.7590    6.1080 H     201  RNC201      0.0426
     29 H041      -48.4250  -29.2410    6.4670 H     201  RNC201      0.0865
     30 H071      -50.8260  -28.8770    2.3270 H     201  RNC201      0.0853
     31 H021      -50.7650  -29.1820    7.5820 H     201  RNC201      0.1472
     32 H191      -40.3980  -30.1560    3.4950 H     201  RNC201      0.2970
@<TRIPOS>BOND
     1    21     3    1
     2    22     3    1
     3     3     4    1
     4     3    15    1
     5    18    11    2
     6    16    19   ar
     7    16     2   ar
     8    23     4    1
     9     4     2    1
    10     4     5    1
    11    19     1   ar
    12     2    17   ar
    13    15    11   am
    14    15     5    1
    15    11     9    1
    16     1    17   ar
    17     1    20    1
    18    30    10    1
    19    20    32    1
    20     5    24    1
    21     5    25    1
    22    10     9   ar
    23    10    14   ar
    24     9    13   ar
    25    14     7   ar
    26    13     8   ar
    27     7     8   ar
    28     7    12    1
    29     8    29    1
    30    27     6    1
    31    28     6    1
    32     6    12    1
    33     6    26    1
    34    12    31    1
