@<TRIPOS>MOLECULE
/home/pku/3cl/gett_pdb/5RUZ/5RUZ_mol2/ligand/5RUZ_W6S.pdb
 48 31 0 0 0
SMALL
GASTEIGER

@<TRIPOS>ATOM
      1  C01      -38.2220    1.4640    3.4340 C.ar  201  W6S201      0.0223
      2  C01      -43.4540   -5.8590    7.2560 C.ar  201  W6S201      0.0242
      3  C02      -39.2220    0.8930    4.1820 C.ar  201  W6S201     -0.0245
      4  C02      -43.2340   -4.5570    6.8550 C.ar  201  W6S201     -0.0027
      5  C03      -39.0030   -0.4840    4.1460 C.ar  201  W6S201      0.0491
      6  C03      -41.9170   -4.5290    6.3600 C.ar  201  W6S201      0.1407
      7  C04      -39.9410   -1.4490    4.8940 C.2   201  W6S201      0.0697
      8  C04      -41.2700   -3.2420    5.8230 C.3   201  W6S201      0.0621
      9  C05      -39.1790   -2.3690    5.7660 C.3   201  W6S201     -0.0309
     10  C05      -41.1620   -3.2600    4.3490 C.3   201  W6S201      0.0000
     11  C06      -40.1900   -3.1310    6.6170 C.3   201  W6S201     -0.0309
     12  C06      -40.7950   -1.8230    3.9690 C.3   201  W6S201     -0.0309
     13  C08      -41.1700   -3.5820    4.3750 C.3   201  W6S201     -0.0531
     14  C08      -38.9960   -2.0820    5.7350 C.3   201  W6S201     -0.0309
     15  C09      -40.8580   -2.1420    3.9540 C.3   201  W6S201     -0.0309
     16  C09      -39.9570   -3.0380    6.4640 C.3   201  W6S201     -0.0309
     17  N07      -41.2600   -3.8150    5.8520 N.pl3 201  W6S201     -0.3211
     18  N07      -39.4290   -1.4540    4.4340 N.2   201  W6S201     -0.1561
     19  N10      -37.9340   -0.7300    3.4040 N.ar  201  W6S201     -0.1823
     20  N10      -41.3860   -5.7590    6.4670 N.ar  201  W6S201     -0.1590
     21  N11      -37.4670    0.4660    2.9620 N.ar  201  W6S201     -0.2847
     22  N11      -42.3320   -6.5630    7.0110 N.ar  201  W6S201     -0.2830
     23 H011      -38.1050    2.3710    3.2680 H     201  W6S201      0.0824
     24 H011      -44.2400   -6.1910    7.6220 H     201  W6S201      0.0824
     25 H021      -39.9000    1.3370    4.6360 H     201  W6S201      0.0648
     26 H021      -43.8300   -3.8460    6.9050 H     201  W6S201      0.0667
     27 H041      -40.4970   -0.9100    5.4780 H     201  W6S201      0.0864
     28 H041      -41.8400   -2.4980    6.0720 H     201  W6S201      0.0536
     29 H051      -38.5870   -1.8600    6.3410 H     201  W6S201      0.0309
     30 H051      -42.0120   -3.5060    3.9520 H     201  W6S201      0.0265
     31 H052      -38.6670   -2.9900    5.2250 H     201  W6S201      0.0309
     32 H052      -40.4620   -3.8710    4.0700 H     201  W6S201      0.0265
     33 H061      -40.6070   -2.5030    7.2270 H     201  W6S201      0.0000
     34 H061      -41.4380   -1.2140    4.3640 H     201  W6S201      0.0000
     35 H062      -39.7120   -3.7970    7.1360 H     201  W6S201      0.0000
     36 H062      -40.8290   -1.7370    3.0030 H     201  W6S201      0.0000
     37 H082      -40.4730   -4.1570    4.0220 H     201  W6S201      0.0000
     38 H082      -38.1800   -2.5750    5.5570 H     201  W6S201      0.0000
     39 H081      -42.0150   -3.8390    3.9750 H     201  W6S201      0.0000
     40 H081      -38.7820   -1.3620    6.3480 H     201  W6S201      0.0000
     41 H092      -41.6900   -1.6450    3.9130 H     201  W6S201      0.0309
     42 H092      -40.1120   -2.6860    7.3540 H     201  W6S201      0.0309
     43 H091      -40.4520   -2.1550    3.0730 H     201  W6S201      0.0309
     44 H091      -39.5210   -3.9010    6.5450 H     201  W6S201      0.0309
     45  H1       -42.0540   -3.5420    6.1470 H     201  W6S201      0.1479
     46  H1       -39.3680   -0.5680    4.4980 H     201  W6S201      0.0848
     47 H111      -36.7670    0.5700    2.4600 H     201  W6S201      0.1882
     48 H111      -42.2310   -7.4090    7.1760 H     201  W6S201      0.1882
@<TRIPOS>BOND
     1    47    21    1
     2    21    19   ar
     3    21     1   ar
     4    43    15    1
     5    23     1    1
     6    19     5   ar
     7     1     3   ar
     8    41    12    1
     9    30    13    1
    10    32    13    1
    11     5     3   ar
    12     5    46    1
    13     3    25    1
    14    18     7    2
    15     7    27    1
    16    31     9    1
    17    14    29    1
    18     8    17    1
    19     8    28    1
    20    17    45    1
    21    17     6    1
    22     6    20   ar
    23     6     4   ar
    24    16    44    1
    25    20    22   ar
    26    11    42    1
    27     4    26    1
    28     4     2   ar
    29    22    48    1
    30    22     2   ar
    31     2    24    1
