W1V
  -OEChem-02242320043D

 25 25  0     0  0  0  0  0  0999 V2000
   -2.0890   -0.1690    0.1510 N   0  0  0  0  0  0  0  0  0  0  0  0
   -0.8040   -2.2620   -0.5280 C   0  0  0  0  0  0  0  0  0  0  0  0
   -0.0270    0.1670   -0.4800 C   0  0  0  0  0  0  0  0  0  0  0  0
    1.3810   -0.0660   -0.9650 C   0  0  0  0  0  0  0  0  0  0  0  0
    2.2850   -0.3080    0.2150 C   0  0  0  0  0  0  0  0  0  0  0  0
    1.8320   -0.2930    1.3400 O   0  0  0  0  0  0  0  0  0  0  0  0
    3.5980   -0.5420    0.0220 N   0  0  0  0  0  0  0  0  0  0  0  0
   -0.5880    1.4050   -0.1470 C   0  0  0  0  0  0  0  0  0  0  0  0
    0.1110    2.7380   -0.2110 C   0  0  0  0  0  0  0  0  0  0  0  0
   -0.9710   -0.7830   -0.2900 C   0  0  0  0  0  0  0  0  0  0  0  0
   -1.8250    1.2040    0.2300 N   0  0  0  0  0  0  0  0  0  0  0  0
   -3.3580   -0.8230    0.4830 C   0  0  0  0  0  0  0  0  0  0  0  0
   -0.4480   -2.7390    0.3850 H   0  0  0  0  0  0  0  0  0  0  0  0
   -1.7630   -2.6940   -0.8130 H   0  0  0  0  0  0  0  0  0  0  0  0
   -0.0820   -2.4220   -1.3280 H   0  0  0  0  0  0  0  0  0  0  0  0
    1.3990   -0.9360   -1.6210 H   0  0  0  0  0  0  0  0  0  0  0  0
    1.7260    0.8100   -1.5140 H   0  0  0  0  0  0  0  0  0  0  0  0
    3.9610   -0.5540   -0.8780 H   0  0  0  0  0  0  0  0  0  0  0  0
    4.1810   -0.6980    0.7810 H   0  0  0  0  0  0  0  0  0  0  0  0
   -0.0350    3.1780   -1.1980 H   0  0  0  0  0  0  0  0  0  0  0  0
   -0.3030    3.4020    0.5480 H   0  0  0  0  0  0  0  0  0  0  0  0
    1.1770    2.5980   -0.0300 H   0  0  0  0  0  0  0  0  0  0  0  0
   -3.9860   -0.8690   -0.4060 H   0  0  0  0  0  0  0  0  0  0  0  0
   -3.1620   -1.8340    0.8430 H   0  0  0  0  0  0  0  0  0  0  0  0
   -3.8680   -0.2540    1.2600 H   0  0  0  0  0  0  0  0  0  0  0  0
  2 10  1  0  0  0  0
  5  6  2  0  0  0  0
  4  5  1  0  0  0  0
  3  4  1  0  0  0  0
  5  7  1  0  0  0  0
  3 10  2  0  0  0  0
  1 10  1  0  0  0  0
  3  8  1  0  0  0  0
  1 12  1  0  0  0  0
  1 11  1  0  0  0  0
  8 11  2  0  0  0  0
  8  9  1  0  0  0  0
  2 13  1  0  0  0  0
  2 14  1  0  0  0  0
  2 15  1  0  0  0  0
  4 16  1  0  0  0  0
  4 17  1  0  0  0  0
  7 18  1  0  0  0  0
  7 19  1  0  0  0  0
  9 20  1  0  0  0  0
  9 21  1  0  0  0  0
  9 22  1  0  0  0  0
 12 23  1  0  0  0  0
 12 24  1  0  0  0  0
 12 25  1  0  0  0  0
M  END
> <OPENEYE_ISO_SMILES>
Cc1c(c(n(n1)C)C)CC(=O)N

> <OPENEYE_INCHI>
InChI=1S/C8H13N3O/c1-5-7(4-8(9)12)6(2)11(3)10-5/h4H2,1-3H3,(H2,9,12)

> <OPENEYE_INCHIKEY>
JQSGNNVZAVLVHV-UHFFFAOYSA-N

> <FORMULA>
C8H13N3O

$$$$
