9FF
  -OEChem-02242320013D

 18 19  0     0  0  0  0  0  0999 V2000
    0.6290    1.2730    0.0030 N   0  0  0  0  0  0  0  0  0  0  0  0
   -3.0220    0.4990    0.0080 C   0  0  0  0  0  0  0  0  0  0  0  0
   -1.9090    1.3100   -0.0090 C   0  0  0  0  0  0  0  0  0  0  0  0
   -0.6380    0.7410   -0.0020 C   0  0  0  0  0  0  0  0  0  0  0  0
    1.5470    0.2380    0.0030 C   0  0  0  0  0  0  0  0  0  0  0  0
    0.8770   -0.9490   -0.0020 C   0  0  0  0  0  0  0  0  0  0  0  0
   -0.5080   -0.6620    0.0010 C   0  0  0  0  0  0  0  0  0  0  0  0
   -1.6570   -1.4650   -0.0020 C   0  0  0  0  0  0  0  0  0  0  0  0
   -2.8910   -0.8840    0.0010 C   0  0  0  0  0  0  0  0  0  0  0  0
    3.0000    0.3920    0.0030 C   0  0  0  0  0  0  0  0  0  0  0  0
    3.7140   -0.5890   -0.0030 O   0  0  0  0  0  0  0  0  0  0  0  0
    0.8450    2.2190    0.0020 H   0  0  0  0  0  0  0  0  0  0  0  0
   -4.0060    0.9430    0.0030 H   0  0  0  0  0  0  0  0  0  0  0  0
   -2.0210    2.3840   -0.0290 H   0  0  0  0  0  0  0  0  0  0  0  0
    1.3240   -1.9330   -0.0030 H   0  0  0  0  0  0  0  0  0  0  0  0
   -1.5650   -2.5410   -0.0070 H   0  0  0  0  0  0  0  0  0  0  0  0
   -3.7740   -1.5050   -0.0010 H   0  0  0  0  0  0  0  0  0  0  0  0
    3.4380    1.3790    0.0070 H   0  0  0  0  0  0  0  0  0  0  0  0
 10 11  2  0  0  0  0
  5 10  1  0  0  0  0
  5  6  2  0  0  0  0
  1  5  1  0  0  0  0
  6  7  1  0  0  0  0
  1  4  1  0  0  0  0
  4  7  2  0  0  0  0
  7  8  1  0  0  0  0
  3  4  1  0  0  0  0
  8  9  2  0  0  0  0
  2  3  2  0  0  0  0
  2  9  1  0  0  0  0
  1 12  1  0  0  0  0
  2 13  1  0  0  0  0
  3 14  1  0  0  0  0
  6 15  1  0  0  0  0
  8 16  1  0  0  0  0
  9 17  1  0  0  0  0
 10 18  1  0  0  0  0
M  END
> <OPENEYE_ISO_SMILES>
c1ccc2c(c1)cc([nH]2)C=O

> <OPENEYE_INCHI>
InChI=1S/C9H7NO/c11-6-8-5-7-3-1-2-4-9(7)10-8/h1-6,10H

> <OPENEYE_INCHIKEY>
SBNOTUDDIXOFSN-UHFFFAOYSA-N

> <FORMULA>
C9H7NO

$$$$
