@<TRIPOS>MOLECULE
/home/pku/3cl/gett_pdb/5RTK/5RTK_mol2/ligand/5RTK_BZX.pdb
 16 17 0 0 0
SMALL
GASTEIGER

@<TRIPOS>ATOM
      1  C1       -48.9220  -29.1120    3.4650 C.ar  201  BZX201      0.0253
      2  C2       -47.5530  -29.0510    3.7000 C.ar  201  BZX201      0.1206
      3  C3       -47.0960  -29.0300    5.0050 C.ar  201  BZX201     -0.0165
      4  C4       -47.9730  -29.0700    6.0750 C.ar  201  BZX201     -0.0127
      5  C5       -49.3670  -29.1240    5.8370 C.ar  201  BZX201      0.1665
      6  C6       -49.8300  -29.1510    4.5540 C.ar  201  BZX201      0.1697
      7  O7       -51.1270  -29.2100    4.6020 O.3   201  BZX201     -0.4525
      8  C8       -51.5470  -29.5700    5.8930 C.3   201  BZX201      0.2332
      9  O9       -50.4740  -29.1810    6.7130 O.3   201  BZX201     -0.4526
     10  O10      -46.6100  -29.0100    2.6450 O.3   201  BZX201     -0.5066
     11  H1       -49.1670  -29.0330    2.6220 H     201  BZX201      0.0692
     12  H3       -46.1810  -29.0020    5.1670 H     201  BZX201      0.0655
     13  H4       -47.6470  -29.0790    6.9460 H     201  BZX201      0.0656
     14  H8       -51.6690  -30.5310    5.9440 H     201  BZX201      0.1166
     15  H8A      -52.3430  -29.0690    6.1320 H     201  BZX201      0.1166
     16 HO10      -47.0140  -29.0830    1.9010 H     201  BZX201      0.2921
@<TRIPOS>BOND
     1    16    10    1
     2    11     1    1
     3    10     2    1
     4     1     2   ar
     5     1     6   ar
     6     2     3   ar
     7     6     7    1
     8     6     5   ar
     9     7     8    1
    10     3    12    1
    11     3     4   ar
    12     5     4   ar
    13     5     9    1
    14     8    14    1
    15     8    15    1
    16     8     9    1
    17     4    13    1
