JGY
  -OEChem-02242320033D

 30 31  0     1  0  0  0  0  0999 V2000
   -1.6430    0.9980   -0.1820 C   0  0  0  0  0  0  0  0  0  0  0  0
   -5.0200   -0.6130   -0.2570 C   0  0  0  0  0  0  0  0  0  0  0  0
    4.3170   -2.2540   -0.2980 C   0  0  0  0  0  0  0  0  0  0  0  0
    3.6580   -0.9600   -0.1020 N   0  0  0  0  0  0  0  0  0  0  0  0
    4.2960    0.1960    0.1810 C   0  0  0  0  0  0  0  0  0  0  0  0
    3.3510    1.1600    0.2870 C   0  0  0  0  0  0  0  0  0  0  0  0
    2.1170    0.5070    0.0510 C   0  0  0  0  0  0  0  0  0  0  0  0
    2.3910   -0.7610   -0.1800 N   0  0  0  0  0  0  0  0  0  0  0  0
    0.7780    1.1300    0.0560 C   0  0  0  0  0  0  0  0  0  0  0  0
    0.6620    2.3200    0.2790 O   0  0  0  0  0  0  0  0  0  0  0  0
   -0.3150    0.3800   -0.1870 N   0  0  0  0  0  0  0  0  0  0  0  0
   -2.7020   -0.0650   -0.4830 C   0  0  2  0  0  0  0  0  0  0  0  0
   -4.1010    0.5890   -0.6070 C   0  0  0  0  0  0  0  0  0  0  0  0
   -4.1800   -1.3740    0.7900 C   0  0  0  0  0  0  0  0  0  0  0  0
   -2.8130   -0.9830    0.6160 O   0  0  0  0  0  0  0  0  0  0  0  0
   -1.8370    1.4360    0.7970 H   0  0  0  0  0  0  0  0  0  0  0  0
   -1.6840    1.7780   -0.9430 H   0  0  0  0  0  0  0  0  0  0  0  0
   -5.9600   -0.2690    0.1750 H   0  0  0  0  0  0  0  0  0  0  0  0
   -5.2020   -1.2340   -1.1340 H   0  0  0  0  0  0  0  0  0  0  0  0
    4.5730   -2.3750   -1.3510 H   0  0  0  0  0  0  0  0  0  0  0  0
    5.2250   -2.2940    0.3030 H   0  0  0  0  0  0  0  0  0  0  0  0
    3.6430   -3.0550    0.0070 H   0  0  0  0  0  0  0  0  0  0  0  0
    5.3610    0.3280    0.3000 H   0  0  0  0  0  0  0  0  0  0  0  0
    3.5050    2.2060    0.5060 H   0  0  0  0  0  0  0  0  0  0  0  0
   -0.2220   -0.5690   -0.3650 H   0  0  0  0  0  0  0  0  0  0  0  0
   -2.4510   -0.5980   -1.4000 H   0  0  0  0  0  0  0  0  0  0  0  0
   -4.2820    0.9400   -1.6230 H   0  0  0  0  0  0  0  0  0  0  0  0
   -4.2210    1.3990    0.1130 H   0  0  0  0  0  0  0  0  0  0  0  0
   -4.5140   -1.1110    1.7940 H   0  0  0  0  0  0  0  0  0  0  0  0
   -4.2810   -2.4480    0.6360 H   0  0  0  0  0  0  0  0  0  0  0  0
  5  6  2  0  0  0  0
  6  7  1  0  0  0  0
  4  5  1  0  0  0  0
  9 10  2  0  0  0  0
  7  9  1  0  0  0  0
  7  8  2  0  0  0  0
  3  4  1  0  0  0  0
  4  8  1  0  0  0  0
  9 11  1  0  0  0  0
  1 11  1  0  0  0  0
  1 12  1  0  0  0  0
 12 13  1  0  0  0  0
 12 15  1  0  0  0  0
  2 13  1  0  0  0  0
 14 15  1  0  0  0  0
  2 14  1  0  0  0  0
  1 16  1  0  0  0  0
  1 17  1  0  0  0  0
  2 18  1  0  0  0  0
  2 19  1  0  0  0  0
  3 20  1  0  0  0  0
  3 21  1  0  0  0  0
  3 22  1  0  0  0  0
  5 23  1  0  0  0  0
  6 24  1  0  0  0  0
 11 25  1  0  0  0  0
 12 26  1  0  0  0  0
 13 27  1  0  0  0  0
 13 28  1  0  0  0  0
 14 29  1  0  0  0  0
 14 30  1  0  0  0  0
M  END
> <OPENEYE_ISO_SMILES>
Cn1ccc(n1)C(=O)NC[C@@H]2CCCO2

> <OPENEYE_INCHI>
InChI=1S/C10H15N3O2/c1-13-5-4-9(12-13)10(14)11-7-8-3-2-6-15-8/h4-5,8H,2-3,6-7H2,1H3,(H,11,14)/t8-/m0/s1

> <OPENEYE_INCHIKEY>
WBAZBPMBDLSPCX-QMMMGPOBSA-N

> <FORMULA>
C10H15N3O2

$$$$
