@<TRIPOS>MOLECULE
/home/pku/3cl/gett_pdb/5RVM/5RVM_mol2/ligand/5RVM_HBD.pdb
 17 17 0 0 0
SMALL
GASTEIGER

@<TRIPOS>ATOM
      1  C1        10.3150    4.0180   18.7910 C.ar  201  HBD201      0.0367
      2  C2        10.3620    3.0370   19.7760 C.ar  201  HBD201     -0.0462
      3  C3        10.7050    1.7320   19.4520 C.ar  201  HBD201     -0.0195
      4  C4        11.0010    1.3980   18.1430 C.ar  201  HBD201      0.1169
      5  C5        10.9550    2.3710   17.1580 C.ar  201  HBD201     -0.0195
      6  C6        10.6130    3.6690   17.4790 C.ar  201  HBD201     -0.0462
      7  C1'        9.9310    5.4630   19.1540 C.2   201  HBD201      0.2415
      8  O1'       10.2180    5.9230   20.2040 O.2   201  HBD201     -0.2704
      9  N1'        9.2010    6.3210   18.2360 N.am  201  HBD201     -0.3253
     10  O4        11.3420    0.0840   17.8060 O.3   201  HBD201     -0.5068
     11  H2        10.1630    3.2570   20.6570 H     201  HBD201      0.0626
     12  H3        10.7340    1.0810   20.1150 H     201  HBD201      0.0654
     13  H5        11.1520    2.1480   16.2770 H     201  HBD201      0.0654
     14  H6        10.5840    4.3160   16.8120 H     201  HBD201      0.0626
     15 HN'1        8.9720    6.0250   17.4620 H     201  HBD201      0.1453
     16 HN'2        8.9990    7.1250   18.4660 H     201  HBD201      0.1453
     17  HO4       11.4870    0.0340   16.9700 H     201  HBD201      0.2921
@<TRIPOS>BOND
     1    13     5    1
     2    14     6    1
     3    17    10    1
     4     5     6   ar
     5     5     4   ar
     6    15     9    1
     7     6     1   ar
     8    10     4    1
     9     4     3   ar
    10     9    16    1
    11     9     7   am
    12     1     7    1
    13     1     2   ar
    14     7     8    2
    15     3     2   ar
    16     3    12    1
    17     2    11    1
