@<TRIPOS>MOLECULE
/home/pku/3cl/gett_pdb/5SQA/5SQA_mol2/ligand/5SQA_QNF.pdb
 42 45 0 0 0
SMALL
GASTEIGER

@<TRIPOS>ATOM
      1  C18      -49.6810  -29.2110    6.2580 C.ar  201  QNF201      0.0757
      2  C16      -49.6510  -29.1900    3.8510 C.ar  201  QNF201     -0.0060
      3  C17      -50.3350  -29.2040    5.0480 C.ar  201  QNF201      0.1430
      4  C15      -48.2770  -29.1610    3.8800 C.ar  201  QNF201      0.0403
      5  C14      -47.5650  -29.1930    2.5480 C.2   201  QNF201      0.2447
      6  C12      -45.4460  -29.5930    1.3430 C.3   201  QNF201      0.0580
      7  C11      -45.3760  -28.2630    0.5710 C.ar  201  QNF201     -0.0199
      8  C10      -46.3450  -27.6020   -0.1900 C.ar  201  QNF201     -0.0563
      9  C20      -51.7860  -29.4960    7.4990 C.2   201  QNF201      0.2549
     10  C02      -43.8600  -30.9620    2.6900 C.2   201  QNF201      0.0926
     11  C03      -44.0000  -30.0270    1.4900 C.3   201  QNF201      0.0343
     12  C04      -43.2630  -28.7210    1.6070 C.3   201  QNF201     -0.0132
     13  C05      -44.0880  -27.7590    0.7240 C.ar  201  QNF201     -0.0003
     14  C06      -43.7700  -26.5510    0.0990 C.ar  201  QNF201      0.1204
     15  C08      -44.7410  -25.8980   -0.6520 C.ar  201  QNF201     -0.0199
     16  C09      -46.0180  -26.4110   -0.8020 C.ar  201  QNF201     -0.0580
     17  C21      -52.2940  -29.8990    6.1230 C.3   201  QNF201      0.1656
     18  C24      -48.2950  -29.1880    6.3000 C.ar  201  QNF201     -0.0362
     19  C25      -47.5950  -29.1810    5.1020 C.ar  201  QNF201     -0.0477
     20  N13      -46.1530  -29.4820    2.5830 N.am  201  QNF201     -0.3039
     21  N19      -50.4190  -29.1870    7.4860 N.am  201  QNF201     -0.2798
     22  O01      -44.2620  -32.1550    2.5970 O.co2 201  QNF201     -0.8473
     23  O07      -42.4980  -25.9870    0.2110 O.3   201  QNF201     -0.5065
     24  O22      -51.7720  -29.2010    5.0150 O.3   201  QNF201     -0.4809
     25  O23      -52.4450  -29.4640    8.4870 O.2   201  QNF201     -0.2717
     26  O26      -48.1590  -29.0320    1.5340 O.2   201  QNF201     -0.2702
     27  O27      -43.3500  -30.5540    3.7650 O.co2 201  QNF201     -0.3086
     28 H161      -50.2000  -29.1610    2.9180 H     201  QNF201      0.0662
     29 H121      -45.9430  -30.3410    0.7390 H     201  QNF201      0.0555
     30 H101      -47.3460  -28.0180   -0.2960 H     201  QNF201      0.0621
     31 H031      -43.6810  -30.5470    0.5880 H     201  QNF201      0.0393
     32 H041      -42.2660  -28.8380    1.1870 H     201  QNF201      0.0322
     33 H042      -43.2500  -28.3770    2.6400 H     201  QNF201      0.0322
     34 H081      -44.5010  -24.9770   -1.1430 H     201  QNF201      0.0654
     35 H091      -46.7520  -25.8840   -1.3950 H     201  QNF201      0.0619
     36 H211      -51.9860  -30.9260    5.9500 H     201  QNF201      0.0795
     37 H212      -53.3610  -29.7950    6.1150 H     201  QNF201      0.0795
     38 H241      -47.8010  -29.1780    7.2620 H     201  QNF201      0.0637
     39 H251      -46.5230  -29.1730    5.1230 H     201  QNF201      0.0626
     40 H131      -45.7200  -29.6300    3.4780 H     201  QNF201      0.1496
     41 H191      -49.9620  -28.9000    8.3230 H     201  QNF201      0.1550
     42 H071      -42.1140  -25.9520   -0.6520 H     201  QNF201      0.2921
@<TRIPOS>UNITY_ATOM_ATTR
22 1
charge -1
@<TRIPOS>BOND
     1    35    16    1
     2    34    15    1
     3    16    15   ar
     4    16     8   ar
     5    42    23    1
     6    15    14   ar
     7    30     8    1
     8     8     7   ar
     9    14    23    1
    10    14    13   ar
    11     7    13   ar
    12     7     6    1
    13    31    11    1
    14    13    12    1
    15    29     6    1
    16    32    12    1
    17     6    11    1
    18     6    20    1
    19    11    12    1
    20    11    10    1
    21    26     5    2
    22    12    33    1
    23     5    20   am
    24     5     4    1
    25    20    40    1
    26    22    10   ar
    27    10    27   ar
    28    28     2    1
    29     2     4   ar
    30     2     3   ar
    31     4    19   ar
    32    24     3    1
    33    24    17    1
    34     3     1   ar
    35    19    39    1
    36    19    18   ar
    37    36    17    1
    38    37    17    1
    39    17     9    1
    40     1    18   ar
    41     1    21    1
    42    18    38    1
    43    21     9   am
    44    21    41    1
    45     9    25    2
