W3V
  -OEChem-02242320043D

 24 24  0     0  0  0  0  0  0999 V2000
   -1.4560   -0.1010   -0.3570 N   0  0  0  0  0  0  0  0  0  0  0  0
    0.5700    1.2510   -0.2070 C   0  0  0  0  0  0  0  0  0  0  0  0
   -0.8140    1.1240   -0.8520 C   0  0  0  0  0  0  0  0  0  0  0  0
    2.7440    0.1080    0.1340 C   0  0  0  0  0  0  0  0  0  0  0  0
    3.6260   -0.8980    0.0270 O   0  0  0  0  0  0  0  0  0  0  0  0
    3.0520    1.1220    0.7150 O   0  0  0  0  0  0  0  0  0  0  0  0
    1.3700   -0.0260   -0.4700 C   0  0  0  0  0  0  0  0  0  0  0  0
    0.6500   -1.2200    0.1620 C   0  0  0  0  0  0  0  0  0  0  0  0
   -0.7330   -1.3750   -0.4780 C   0  0  0  0  0  0  0  0  0  0  0  0
   -2.6810   -0.0580    0.2010 C   0  0  0  0  0  0  0  0  0  0  0  0
   -3.2380   -1.0880    0.5280 O   0  0  0  0  0  0  0  0  0  0  0  0
   -3.2900    1.1290    0.3980 N   0  0  0  0  0  0  0  0  0  0  0  0
    1.0950    2.1040   -0.6380 H   0  0  0  0  0  0  0  0  0  0  0  0
    0.4580    1.3970    0.8670 H   0  0  0  0  0  0  0  0  0  0  0  0
   -0.7090    1.0700   -1.9360 H   0  0  0  0  0  0  0  0  0  0  0  0
   -1.4230    1.9880   -0.5850 H   0  0  0  0  0  0  0  0  0  0  0  0
    4.4940   -0.7650    0.4300 H   0  0  0  0  0  0  0  0  0  0  0  0
    1.4590   -0.1840   -1.5440 H   0  0  0  0  0  0  0  0  0  0  0  0
    1.2320   -2.1260   -0.0050 H   0  0  0  0  0  0  0  0  0  0  0  0
    0.5380   -1.0520    1.2340 H   0  0  0  0  0  0  0  0  0  0  0  0
   -1.2880   -2.1600    0.0360 H   0  0  0  0  0  0  0  0  0  0  0  0
   -0.6210   -1.6330   -1.5310 H   0  0  0  0  0  0  0  0  0  0  0  0
   -2.8800    1.9440    0.0710 H   0  0  0  0  0  0  0  0  0  0  0  0
   -4.1390    1.1660    0.8660 H   0  0  0  0  0  0  0  0  0  0  0  0
 10 11  2  0  0  0  0
  1  3  1  0  0  0  0
  2  3  1  0  0  0  0
 10 12  1  0  0  0  0
  1 10  1  0  0  0  0
  1  9  1  0  0  0  0
  8  9  1  0  0  0  0
  2  7  1  0  0  0  0
  7  8  1  0  0  0  0
  4  7  1  0  0  0  0
  4  6  2  0  0  0  0
  4  5  1  0  0  0  0
  2 13  1  0  0  0  0
  2 14  1  0  0  0  0
  3 15  1  0  0  0  0
  3 16  1  0  0  0  0
  5 17  1  0  0  0  0
  7 18  1  0  0  0  0
  8 19  1  0  0  0  0
  8 20  1  0  0  0  0
  9 21  1  0  0  0  0
  9 22  1  0  0  0  0
 12 23  1  0  0  0  0
 12 24  1  0  0  0  0
M  END
> <OPENEYE_ISO_SMILES>
C1CN(CCC1C(=O)O)C(=O)N

> <OPENEYE_INCHI>
InChI=1S/C7H12N2O3/c8-7(12)9-3-1-5(2-4-9)6(10)11/h5H,1-4H2,(H2,8,12)(H,10,11)

> <OPENEYE_INCHIKEY>
SIYQEPJUSPTPGW-UHFFFAOYSA-N

> <FORMULA>
C7H12N2O3

$$$$
