D03
  -OEChem-02242320023D

 78 81  0     1  0  0  0  0  0999 V2000
   -4.2460   -1.2960    0.6720 O   0  0  0  0  0  0  0  0  0  0  0  0
   -3.8090   -0.2240    0.2970 C   0  0  0  0  0  0  0  0  0  0  0  0
   -4.7090    0.9200    0.1400 C   0  0  0  0  0  0  0  0  0  0  0  0
   -6.0230    0.7860    0.4090 C   0  0  0  0  0  0  0  0  0  0  0  0
   -6.9290    1.9360    0.2510 C   0  0  0  0  0  0  0  0  0  0  0  0
   -8.2920    1.8000    0.5300 C   0  0  0  0  0  0  0  0  0  0  0  0
   -9.1340    2.8820    0.3790 C   0  0  0  0  0  0  0  0  0  0  0  0
   -8.6320    4.1000   -0.0460 C   0  0  0  0  0  0  0  0  0  0  0  0
   -7.2840    4.2410   -0.3250 C   0  0  0  0  0  0  0  0  0  0  0  0
   -6.4280    3.1710   -0.1730 C   0  0  0  0  0  0  0  0  0  0  0  0
   -2.4940   -0.0880    0.0330 N   0  0  0  0  0  0  0  0  0  0  0  0
   -1.5920   -1.2300    0.1970 C   0  0  1  0  0  0  0  0  0  0  0  0
   -1.6100   -2.0800   -1.0760 C   0  0  0  0  0  0  0  0  0  0  0  0
   -2.9810   -2.6780   -1.2610 C   0  0  0  0  0  0  0  0  0  0  0  0
   -3.2800   -3.9080   -0.7060 C   0  0  0  0  0  0  0  0  0  0  0  0
   -4.5370   -4.4560   -0.8760 C   0  0  0  0  0  0  0  0  0  0  0  0
   -5.4960   -3.7740   -1.6020 C   0  0  0  0  0  0  0  0  0  0  0  0
   -5.1970   -2.5430   -2.1570 C   0  0  0  0  0  0  0  0  0  0  0  0
   -3.9410   -1.9930   -1.9820 C   0  0  0  0  0  0  0  0  0  0  0  0
   -0.1920   -0.7330    0.4490 C   0  0  0  0  0  0  0  0  0  0  0  0
    0.0310    0.4580    0.4880 O   0  0  0  0  0  0  0  0  0  0  0  0
    0.8130   -1.6130    0.6310 N   0  0  0  0  0  0  0  0  0  0  0  0
    2.1910   -1.1330    0.7660 C   0  0  1  0  0  0  0  0  0  0  0  0
    2.4870   -0.8440    2.2390 C   0  0  0  0  0  0  0  0  0  0  0  0
    3.7910   -0.0510    2.3510 C   0  0  1  0  0  0  0  0  0  0  0  0
    3.6360    1.3150    1.7180 C   0  0  0  0  0  0  0  0  0  0  0  0
    3.6540    1.5340    0.5260 O   0  0  0  0  0  0  0  0  0  0  0  0
    3.4750    2.2500    2.6710 N   0  0  0  0  0  0  0  0  0  0  0  0
    3.4900    1.6530    4.0110 C   0  0  0  0  0  0  0  0  0  0  0  0
    4.1170    0.2490    3.8320 C   0  0  0  0  0  0  0  0  0  0  0  0
    3.1560   -2.2030    0.2520 C   0  0  2  0  0  0  0  0  0  0  0  0
    3.1320   -3.3290    1.1320 O   0  0  0  0  0  0  0  0  0  0  0  0
    4.5520   -1.6370    0.1990 C   0  0  0  0  0  0  0  0  0  0  0  0
    5.4220   -2.1020    0.9050 O   0  0  0  0  0  0  0  0  0  0  0  0
    4.8330   -0.6130   -0.6310 N   0  0  0  0  0  0  0  0  0  0  0  0
    6.1890   -0.0630   -0.6830 C   0  0  0  0  0  0  0  0  0  0  0  0
    6.2370    1.0640   -1.6830 C   0  0  0  0  0  0  0  0  0  0  0  0
    6.5360    0.8000   -3.0060 C   0  0  0  0  0  0  0  0  0  0  0  0
    5.9750    2.3590   -1.2780 C   0  0  0  0  0  0  0  0  0  0  0  0
    6.0190    3.3920   -2.1950 C   0  0  0  0  0  0  0  0  0  0  0  0
    6.3240    3.1300   -3.5170 C   0  0  0  0  0  0  0  0  0  0  0  0
    6.5800    1.8340   -3.9240 C   0  0  0  0  0  0  0  0  0  0  0  0
   -4.3210    1.8720   -0.1920 H   0  0  0  0  0  0  0  0  0  0  0  0
   -6.4120   -0.1660    0.7410 H   0  0  0  0  0  0  0  0  0  0  0  0
   -8.6850    0.8500    0.8610 H   0  0  0  0  0  0  0  0  0  0  0  0
  -10.1870    2.7790    0.5940 H   0  0  0  0  0  0  0  0  0  0  0  0
   -9.2960    4.9430   -0.1630 H   0  0  0  0  0  0  0  0  0  0  0  0
   -6.9000    5.1950   -0.6570 H   0  0  0  0  0  0  0  0  0  0  0  0
   -5.3760    3.2830   -0.3900 H   0  0  0  0  0  0  0  0  0  0  0  0
   -2.1450    0.7670   -0.2650 H   0  0  0  0  0  0  0  0  0  0  0  0
   -1.9210   -1.8350    1.0420 H   0  0  0  0  0  0  0  0  0  0  0  0
   -1.3670   -1.4540   -1.9340 H   0  0  0  0  0  0  0  0  0  0  0  0
   -0.8740   -2.8790   -0.9890 H   0  0  0  0  0  0  0  0  0  0  0  0
   -2.5300   -4.4410   -0.1390 H   0  0  0  0  0  0  0  0  0  0  0  0
   -4.7700   -5.4170   -0.4430 H   0  0  0  0  0  0  0  0  0  0  0  0
   -6.4780   -4.2020   -1.7350 H   0  0  0  0  0  0  0  0  0  0  0  0
   -5.9460   -2.0110   -2.7230 H   0  0  0  0  0  0  0  0  0  0  0  0
   -3.7090   -1.0300   -2.4120 H   0  0  0  0  0  0  0  0  0  0  0  0
    0.6240   -2.5630    0.6720 H   0  0  0  0  0  0  0  0  0  0  0  0
    2.3160   -0.2200    0.1840 H   0  0  0  0  0  0  0  0  0  0  0  0
    1.6710   -0.2620    2.6670 H   0  0  0  0  0  0  0  0  0  0  0  0
    2.5860   -1.7840    2.7810 H   0  0  0  0  0  0  0  0  0  0  0  0
    4.6100   -0.5970    1.8830 H   0  0  0  0  0  0  0  0  0  0  0  0
    3.3630    3.1970    2.4940 H   0  0  0  0  0  0  0  0  0  0  0  0
    4.1000    2.2550    4.6850 H   0  0  0  0  0  0  0  0  0  0  0  0
    2.4740    1.5660    4.3970 H   0  0  0  0  0  0  0  0  0  0  0  0
    3.6430   -0.4780    4.4920 H   0  0  0  0  0  0  0  0  0  0  0  0
    5.1940    0.2780    3.9980 H   0  0  0  0  0  0  0  0  0  0  0  0
    2.8530   -2.5160   -0.7470 H   0  0  0  0  0  0  0  0  0  0  0  0
    3.3910   -3.1230    2.0410 H   0  0  0  0  0  0  0  0  0  0  0  0
    4.1360   -0.2410   -1.1950 H   0  0  0  0  0  0  0  0  0  0  0  0
    6.4660    0.3140    0.3020 H   0  0  0  0  0  0  0  0  0  0  0  0
    6.8870   -0.8440   -0.9820 H   0  0  0  0  0  0  0  0  0  0  0  0
    6.7370   -0.2120   -3.3230 H   0  0  0  0  0  0  0  0  0  0  0  0
    5.7360    2.5640   -0.2450 H   0  0  0  0  0  0  0  0  0  0  0  0
    5.8140    4.4050   -1.8790 H   0  0  0  0  0  0  0  0  0  0  0  0
    6.3580    3.9370   -4.2340 H   0  0  0  0  0  0  0  0  0  0  0  0
    6.8150    1.6280   -4.9580 H   0  0  0  0  0  0  0  0  0  0  0  0
 29 30  1  0  0  0  0
 28 29  1  0  0  0  0
 25 30  1  0  0  0  0
 26 28  1  0  0  0  0
  7  8  2  0  0  0  0
  8  9  1  0  0  0  0
  6  7  1  0  0  0  0
  9 10  2  0  0  0  0
  5  6  2  0  0  0  0
 31 32  1  0  0  0  0
 35 36  1  0  0  0  0
 33 35  1  0  0  0  0
 25 26  1  0  0  0  0
 26 27  2  0  0  0  0
 36 37  1  0  0  0  0
 24 25  1  0  0  0  0
 37 38  2  0  0  0  0
 38 42  1  0  0  0  0
  5 10  1  0  0  0  0
  4  5  1  0  0  0  0
 23 24  1  0  0  0  0
 20 21  2  0  0  0  0
 37 39  1  0  0  0  0
 23 31  1  0  0  0  0
 22 23  1  0  0  0  0
 41 42  2  0  0  0  0
 31 33  1  0  0  0  0
 33 34  2  0  0  0  0
  3  4  2  0  0  0  0
 39 40  2  0  0  0  0
 40 41  1  0  0  0  0
 20 22  1  0  0  0  0
 12 20  1  0  0  0  0
  2  3  1  0  0  0  0
  1  2  2  0  0  0  0
  2 11  1  0  0  0  0
 11 12  1  0  0  0  0
 12 13  1  0  0  0  0
 13 14  1  0  0  0  0
 14 19  2  0  0  0  0
 14 15  1  0  0  0  0
 18 19  1  0  0  0  0
 15 16  2  0  0  0  0
 17 18  2  0  0  0  0
 16 17  1  0  0  0  0
  3 43  1  0  0  0  0
  4 44  1  0  0  0  0
  6 45  1  0  0  0  0
  7 46  1  0  0  0  0
  8 47  1  0  0  0  0
  9 48  1  0  0  0  0
 10 49  1  0  0  0  0
 11 50  1  0  0  0  0
 12 51  1  0  0  0  0
 13 52  1  0  0  0  0
 13 53  1  0  0  0  0
 15 54  1  0  0  0  0
 16 55  1  0  0  0  0
 17 56  1  0  0  0  0
 18 57  1  0  0  0  0
 19 58  1  0  0  0  0
 22 59  1  0  0  0  0
 23 60  1  0  0  0  0
 24 61  1  0  0  0  0
 24 62  1  0  0  0  0
 25 63  1  0  0  0  0
 28 64  1  0  0  0  0
 29 65  1  0  0  0  0
 29 66  1  0  0  0  0
 30 67  1  0  0  0  0
 30 68  1  0  0  0  0
 31 69  1  0  0  0  0
 32 70  1  0  0  0  0
 35 71  1  0  0  0  0
 36 72  1  0  0  0  0
 36 73  1  0  0  0  0
 38 74  1  0  0  0  0
 39 75  1  0  0  0  0
 40 76  1  0  0  0  0
 41 77  1  0  0  0  0
 42 78  1  0  0  0  0
M  END
> <OPENEYE_ISO_SMILES>
c1ccc(cc1)C[C@@H](C(=O)N[C@@H](C[C@@H]2CCNC2=O)[C@@H](C(=O)NCc3ccccc3)O)NC(=O)/C=C/c4ccccc4

> <OPENEYE_INCHI>
InChI=1S/C33H36N4O5/c38-29(17-16-23-10-4-1-5-11-23)36-28(20-24-12-6-2-7-13-24)32(41)37-27(21-26-18-19-34-31(26)40)30(39)33(42)35-22-25-14-8-3-9-15-25/h1-17,26-28,30,39H,18-22H2,(H,34,40)(H,35,42)(H,36,38)(H,37,41)/b17-16+/t26-,27-,28-,30-/m0/s1

> <OPENEYE_INCHIKEY>
ZTFAWEJBUOCZIL-NHTHZNHESA-N

> <FORMULA>
C33H36N4O5

$$$$
