ALD
  -OEChem-02242320013D

 77 77  0     1  0  0  0  0  0999 V2000
    3.6450    0.8130    0.3000 C   0  0  0  0  0  0  0  0  0  0  0  0
    3.6670    1.5710    1.2500 O   0  0  0  0  0  0  0  0  0  0  0  0
    4.7790    0.2150   -0.1100 O   0  0  0  0  0  0  0  0  0  0  0  0
    5.9920    0.5260    0.6260 C   0  0  0  0  0  0  0  0  0  0  0  0
    7.1500   -0.2290    0.0270 C   0  0  0  0  0  0  0  0  0  0  0  0
    7.8960    0.3390   -0.9880 C   0  0  0  0  0  0  0  0  0  0  0  0
    8.9590   -0.3540   -1.5370 C   0  0  0  0  0  0  0  0  0  0  0  0
    9.2750   -1.6160   -1.0700 C   0  0  0  0  0  0  0  0  0  0  0  0
    8.5300   -2.1850   -0.0540 C   0  0  0  0  0  0  0  0  0  0  0  0
    7.4700   -1.4890    0.4980 C   0  0  0  0  0  0  0  0  0  0  0  0
    2.4840    0.5680   -0.3400 N   0  0  0  0  0  0  0  0  0  0  0  0
    1.2320    1.1260    0.1760 C   0  0  2  0  0  0  0  0  0  0  0  0
    0.0850    0.2270   -0.2090 C   0  0  0  0  0  0  0  0  0  0  0  0
    0.2470   -0.6390   -1.0420 O   0  0  0  0  0  0  0  0  0  0  0  0
    1.0100    2.5180   -0.4200 C   0  0  0  0  0  0  0  0  0  0  0  0
   -0.2190    3.1600    0.2270 C   0  0  0  0  0  0  0  0  0  0  0  0
    0.0680    3.4340    1.7050 C   0  0  0  0  0  0  0  0  0  0  0  0
   -0.5390    4.4770   -0.4830 C   0  0  0  0  0  0  0  0  0  0  0  0
   -1.1200    0.3850    0.3740 N   0  0  0  0  0  0  0  0  0  0  0  0
   -2.2030   -0.5580    0.0830 C   0  0  2  0  0  0  0  0  0  0  0  0
   -3.5310    0.1160    0.3150 C   0  0  0  0  0  0  0  0  0  0  0  0
   -3.5690    1.2700    0.6860 O   0  0  0  0  0  0  0  0  0  0  0  0
   -2.0810   -1.7740    1.0040 C   0  0  0  0  0  0  0  0  0  0  0  0
   -0.7900   -2.5300    0.6820 C   0  0  0  0  0  0  0  0  0  0  0  0
   -0.6050   -3.6720    1.6830 C   0  0  0  0  0  0  0  0  0  0  0  0
   -0.8730   -3.1010   -0.7350 C   0  0  0  0  0  0  0  0  0  0  0  0
   -4.6770   -0.5640    0.1090 N   0  0  0  0  0  0  0  0  0  0  0  0
   -5.9680    0.0910    0.3340 C   0  0  2  0  0  0  0  0  0  0  0  0
   -6.3420   -0.0140    1.8140 C   0  0  0  0  0  0  0  0  0  0  0  0
   -7.0410   -0.5940   -0.5130 C   0  0  0  0  0  0  0  0  0  0  0  0
   -6.7180   -0.4040   -1.9970 C   0  0  0  0  0  0  0  0  0  0  0  0
   -7.7180   -1.1950   -2.8420 C   0  0  0  0  0  0  0  0  0  0  0  0
   -6.8100    1.0810   -2.3530 C   0  0  0  0  0  0  0  0  0  0  0  0
   -6.5490   -1.3860    2.1560 O   0  0  0  0  0  0  0  0  0  0  0  0
    6.1870    1.5970    0.5670 H   0  0  0  0  0  0  0  0  0  0  0  0
    5.8680    0.2360    1.6690 H   0  0  0  0  0  0  0  0  0  0  0  0
    7.6490    1.3250   -1.3530 H   0  0  0  0  0  0  0  0  0  0  0  0
    9.5410    0.0900   -2.3300 H   0  0  0  0  0  0  0  0  0  0  0  0
   10.1050   -2.1580   -1.4990 H   0  0  0  0  0  0  0  0  0  0  0  0
    8.7800   -3.1690    0.3130 H   0  0  0  0  0  0  0  0  0  0  0  0
    6.8870   -1.9340    1.2910 H   0  0  0  0  0  0  0  0  0  0  0  0
    2.4780    0.0220   -1.1410 H   0  0  0  0  0  0  0  0  0  0  0  0
    1.2860    1.2010    1.2620 H   0  0  0  0  0  0  0  0  0  0  0  0
    1.8860    3.1380   -0.2310 H   0  0  0  0  0  0  0  0  0  0  0  0
    0.8510    2.4320   -1.4950 H   0  0  0  0  0  0  0  0  0  0  0  0
   -1.0700    2.4850    0.1410 H   0  0  0  0  0  0  0  0  0  0  0  0
   -0.8310    3.8240    2.1830 H   0  0  0  0  0  0  0  0  0  0  0  0
    0.3670    2.5070    2.1940 H   0  0  0  0  0  0  0  0  0  0  0  0
    0.8720    4.1660    1.7900 H   0  0  0  0  0  0  0  0  0  0  0  0
   -0.7430    4.2820   -1.5360 H   0  0  0  0  0  0  0  0  0  0  0  0
   -1.4140    4.9350   -0.0220 H   0  0  0  0  0  0  0  0  0  0  0  0
    0.3120    5.1530   -0.3970 H   0  0  0  0  0  0  0  0  0  0  0  0
   -1.2700    1.1230    0.9850 H   0  0  0  0  0  0  0  0  0  0  0  0
   -2.1350   -0.8800   -0.9560 H   0  0  0  0  0  0  0  0  0  0  0  0
   -2.0590   -1.4430    2.0420 H   0  0  0  0  0  0  0  0  0  0  0  0
   -2.9360   -2.4330    0.8500 H   0  0  0  0  0  0  0  0  0  0  0  0
    0.0570   -1.8470    0.7500 H   0  0  0  0  0  0  0  0  0  0  0  0
   -1.4520   -4.3550    1.6150 H   0  0  0  0  0  0  0  0  0  0  0  0
    0.3150   -4.2100    1.4540 H   0  0  0  0  0  0  0  0  0  0  0  0
   -0.5460   -3.2650    2.6920 H   0  0  0  0  0  0  0  0  0  0  0  0
   -1.7200   -3.7840   -0.8020 H   0  0  0  0  0  0  0  0  0  0  0  0
   -1.0050   -2.2870   -1.4480 H   0  0  0  0  0  0  0  0  0  0  0  0
    0.0470   -3.6390   -0.9640 H   0  0  0  0  0  0  0  0  0  0  0  0
   -4.6460   -1.4870   -0.1870 H   0  0  0  0  0  0  0  0  0  0  0  0
   -5.8960    1.1410    0.0520 H   0  0  0  0  0  0  0  0  0  0  0  0
   -5.5350    0.3940    2.4230 H   0  0  0  0  0  0  0  0  0  0  0  0
   -7.2570    0.5480    1.9980 H   0  0  0  0  0  0  0  0  0  0  0  0
   -7.0650   -1.6580   -0.2800 H   0  0  0  0  0  0  0  0  0  0  0  0
   -8.0140   -0.1520   -0.2950 H   0  0  0  0  0  0  0  0  0  0  0  0
   -5.7080   -0.7640   -2.1970 H   0  0  0  0  0  0  0  0  0  0  0  0
   -7.4360   -1.1310   -3.8930 H   0  0  0  0  0  0  0  0  0  0  0  0
   -7.7150   -2.2390   -2.5280 H   0  0  0  0  0  0  0  0  0  0  0  0
   -8.7160   -0.7780   -2.7080 H   0  0  0  0  0  0  0  0  0  0  0  0
   -6.0970    1.6440   -1.7510 H   0  0  0  0  0  0  0  0  0  0  0  0
   -6.5790    1.2150   -3.4100 H   0  0  0  0  0  0  0  0  0  0  0  0
   -7.8190    1.4410   -2.1530 H   0  0  0  0  0  0  0  0  0  0  0  0
   -6.7910   -1.5290    3.0820 H   0  0  0  0  0  0  0  0  0  0  0  0
  9 10  2  0  0  0  0
  8  9  1  0  0  0  0
  9 40  1  0  0  0  0
  5 10  1  0  0  0  0
 10 41  1  0  0  0  0
  5  6  2  0  0  0  0
  4  5  1  0  0  0  0
  6  7  1  0  0  0  0
  6 37  1  0  0  0  0
  7  8  2  0  0  0  0
  7 38  1  0  0  0  0
  8 39  1  0  0  0  0
  3  4  1  0  0  0  0
  4 35  1  0  0  0  0
  4 36  1  0  0  0  0
  1  3  1  0  0  0  0
  1 11  1  0  0  0  0
  1  2  2  0  0  0  0
 11 12  1  0  0  0  0
 11 42  1  0  0  0  0
 12 13  1  0  0  0  0
 12 15  1  0  0  0  0
 12 43  1  0  0  0  0
 13 19  1  0  0  0  0
 13 14  2  0  0  0  0
 19 20  1  0  0  0  0
 19 53  1  0  0  0  0
 20 21  1  0  0  0  0
 20 23  1  0  0  0  0
 20 54  1  0  0  0  0
 21 27  1  0  0  0  0
 21 22  2  0  0  0  0
 27 28  1  0  0  0  0
 27 64  1  0  0  0  0
 28 30  1  0  0  0  0
 28 29  1  0  0  0  0
 28 65  1  0  0  0  0
 30 31  1  0  0  0  0
 30 68  1  0  0  0  0
 30 69  1  0  0  0  0
 31 32  1  0  0  0  0
 31 33  1  0  0  0  0
 31 70  1  0  0  0  0
 32 71  1  0  0  0  0
 32 72  1  0  0  0  0
 32 73  1  0  0  0  0
 33 74  1  0  0  0  0
 33 75  1  0  0  0  0
 33 76  1  0  0  0  0
 29 34  1  0  0  0  0
 29 66  1  0  0  0  0
 29 67  1  0  0  0  0
 23 24  1  0  0  0  0
 23 55  1  0  0  0  0
 23 56  1  0  0  0  0
 24 25  1  0  0  0  0
 24 26  1  0  0  0  0
 24 57  1  0  0  0  0
 25 58  1  0  0  0  0
 25 59  1  0  0  0  0
 25 60  1  0  0  0  0
 26 61  1  0  0  0  0
 26 62  1  0  0  0  0
 26 63  1  0  0  0  0
 15 16  1  0  0  0  0
 15 44  1  0  0  0  0
 15 45  1  0  0  0  0
 16 17  1  0  0  0  0
 16 18  1  0  0  0  0
 16 46  1  0  0  0  0
 17 47  1  0  0  0  0
 17 48  1  0  0  0  0
 17 49  1  0  0  0  0
 18 50  1  0  0  0  0
 18 51  1  0  0  0  0
 18 52  1  0  0  0  0
 34 77  1  0  0  0  0
M  END
> <OPENEYE_ISO_SMILES>
CC(C)C[C@@H](CO)NC(=O)[C@H](CC(C)C)NC(=O)[C@H](CC(C)C)NC(=O)OCc1ccccc1

> <OPENEYE_INCHI>
InChI=1S/C26H43N3O5/c1-17(2)12-21(15-30)27-24(31)22(13-18(3)4)28-25(32)23(14-19(5)6)29-26(33)34-16-20-10-8-7-9-11-20/h7-11,17-19,21-23,30H,12-16H2,1-6H3,(H,27,31)(H,28,32)(H,29,33)/t21-,22-,23-/m0/s1

> <OPENEYE_INCHIKEY>
WUJQMWDTZKIKQZ-VABKMULXSA-N

> <FORMULA>
C26H43N3O5

$$$$
