T7G
  -OEChem-02242320043D

 37 38  0     0  0  0  0  0  0999 V2000
   -3.6420    0.1120   -0.2800 N   0  0  0  0  0  0  0  0  0  0  0  0
    3.3060   -1.2710   -0.1620 C   0  0  0  0  0  0  0  0  0  0  0  0
    2.8420    0.0340   -0.2200 C   0  0  0  0  0  0  0  0  0  0  0  0
    0.5370   -0.5620   -0.1910 C   0  0  0  0  0  0  0  0  0  0  0  0
   -0.8780   -0.3500   -0.6660 C   0  0  0  0  0  0  0  0  0  0  0  0
   -1.7760   -1.4500   -0.0970 C   0  0  0  0  0  0  0  0  0  0  0  0
   -2.8020    1.2420   -0.7010 C   0  0  0  0  0  0  0  0  0  0  0  0
   -5.7090   -0.8320    0.6940 C   0  0  0  0  0  0  0  0  0  0  0  0
    1.5090    0.2920   -0.5690 N   0  0  0  0  0  0  0  0  0  0  0  0
    3.7040    1.0900    0.0700 C   0  0  0  0  0  0  0  0  0  0  0  0
    3.2540    2.3720    0.0160 O   0  0  0  0  0  0  0  0  0  0  0  0
    5.0200    0.8290    0.4150 C   0  0  0  0  0  0  0  0  0  0  0  0
   -1.3770    1.0160   -0.1880 C   0  0  0  0  0  0  0  0  0  0  0  0
   -4.7920    0.3230    0.3900 C   0  0  0  0  0  0  0  0  0  0  0  0
    5.4750   -0.4750    0.4710 C   0  0  0  0  0  0  0  0  0  0  0  0
    4.6200   -1.5230    0.1820 C   0  0  0  0  0  0  0  0  0  0  0  0
   -3.2070   -1.2520   -0.6090 C   0  0  0  0  0  0  0  0  0  0  0  0
    0.8000   -1.5000    0.5310 O   0  0  0  0  0  0  0  0  0  0  0  0
   -5.0880    1.4440    0.7480 O   0  0  0  0  0  0  0  0  0  0  0  0
    2.6390   -2.0920   -0.3830 H   0  0  0  0  0  0  0  0  0  0  0  0
   -0.9050   -0.3860   -1.7550 H   0  0  0  0  0  0  0  0  0  0  0  0
   -1.4070   -2.4240   -0.4190 H   0  0  0  0  0  0  0  0  0  0  0  0
   -1.7690   -1.4000    0.9920 H   0  0  0  0  0  0  0  0  0  0  0  0
   -2.7930    1.3050   -1.7900 H   0  0  0  0  0  0  0  0  0  0  0  0
   -3.1990    2.1680   -0.2830 H   0  0  0  0  0  0  0  0  0  0  0  0
   -5.3300   -1.7340    0.2140 H   0  0  0  0  0  0  0  0  0  0  0  0
   -5.7550   -0.9860    1.7720 H   0  0  0  0  0  0  0  0  0  0  0  0
   -6.7080   -0.6130    0.3160 H   0  0  0  0  0  0  0  0  0  0  0  0
    1.2860    1.0840   -1.0830 H   0  0  0  0  0  0  0  0  0  0  0  0
    2.8930    2.6980    0.8510 H   0  0  0  0  0  0  0  0  0  0  0  0
    5.6900    1.6450    0.6410 H   0  0  0  0  0  0  0  0  0  0  0  0
   -1.3740    1.0440    0.9010 H   0  0  0  0  0  0  0  0  0  0  0  0
   -0.7230    1.7980   -0.5740 H   0  0  0  0  0  0  0  0  0  0  0  0
    6.5020   -0.6760    0.7400 H   0  0  0  0  0  0  0  0  0  0  0  0
    4.9790   -2.5400    0.2310 H   0  0  0  0  0  0  0  0  0  0  0  0
   -3.8700   -1.9720   -0.1310 H   0  0  0  0  0  0  0  0  0  0  0  0
   -3.2300   -1.3930   -1.6900 H   0  0  0  0  0  0  0  0  0  0  0  0
 10 11  1  0  0  0  0
 10 12  2  0  0  0  0
 12 15  1  0  0  0  0
 15 16  2  0  0  0  0
  2 16  1  0  0  0  0
  2  3  2  0  0  0  0
  3 10  1  0  0  0  0
  3  9  1  0  0  0  0
  4  9  1  0  0  0  0
  4 18  2  0  0  0  0
  4  5  1  0  0  0  0
  5  6  1  0  0  0  0
  6 17  1  0  0  0  0
  1 17  1  0  0  0  0
  1  7  1  0  0  0  0
  7 13  1  0  0  0  0
  5 13  1  0  0  0  0
  1 14  1  0  0  0  0
 14 19  2  0  0  0  0
  8 14  1  0  0  0  0
  2 20  1  0  0  0  0
  5 21  1  0  0  0  0
  6 22  1  0  0  0  0
  6 23  1  0  0  0  0
  7 24  1  0  0  0  0
  7 25  1  0  0  0  0
  8 26  1  0  0  0  0
  8 27  1  0  0  0  0
  8 28  1  0  0  0  0
  9 29  1  0  0  0  0
 11 30  1  0  0  0  0
 12 31  1  0  0  0  0
 13 32  1  0  0  0  0
 13 33  1  0  0  0  0
 15 34  1  0  0  0  0
 16 35  1  0  0  0  0
 17 36  1  0  0  0  0
 17 37  1  0  0  0  0
M  END
> <OPENEYE_ISO_SMILES>
CC(=O)N1CCC(CC1)C(=O)Nc2ccccc2O

> <OPENEYE_INCHI>
InChI=1S/C14H18N2O3/c1-10(17)16-8-6-11(7-9-16)14(19)15-12-4-2-3-5-13(12)18/h2-5,11,18H,6-9H2,1H3,(H,15,19)

> <OPENEYE_INCHIKEY>
YKBMCZDLJSTFOC-UHFFFAOYSA-N

> <FORMULA>
C14H18N2O3

$$$$
