@<TRIPOS>MOLECULE
/home/pku/3cl/gett_pdb/7TOB/7TOB_mol2/ligand/7TOB_K36.pdb
 29 30 0 0 0
SMALL
GASTEIGER

@<TRIPOS>ATOM
      1  C7       -19.9620    4.0820   13.6490 C.3   401  K36401      0.2368
      2  O8       -20.2090    3.0410   14.6920 O.3   401  K36401     -0.4285
      3  C9       -19.3850    1.8800   14.7730 C.2   401  K36401      0.4218
      4  O10      -18.2550    1.8990   14.3050 O.2   401  K36401     -0.2245
      5  C1       -20.4340    3.7970   12.0900 C.ar  401  K36401      0.0213
      6  C2       -21.2780    2.6690   11.6740 C.ar  401  K36401     -0.0007
      7  C3       -21.6720    2.4690   10.2960 C.ar  401  K36401     -0.0002
      8  C4       -21.2740    3.3950    9.2850 C.ar  401  K36401     -0.0000
      9  C5       -20.4680    4.5030    9.6640 C.ar  401  K36401     -0.0002
     10  C6       -20.0590    4.6890   11.0300 C.ar  401  K36401     -0.0007
     11  N11      -19.8820    0.7450   15.3940 N.am  401  K36401     -0.1611
     12  C12      -19.1800   -0.4630   15.3740 C.3   401  K36401      0.1761
     13  C17      -19.0990   -0.9790   13.9150 C.2   401  K36401      0.2614
     14  O18      -20.0800   -0.8940   13.2170 O.2   401  K36401     -0.2715
     15  C13      -19.9560   -1.5370   16.2050 C.3   401  K36401      0.0312
     16  C14      -20.0470   -1.2560   17.7390 C.3   401  K36401      0.0022
     17  C15      -18.7150   -0.9130   18.3140 C.3   401  K36401      0.0001
     18  C16      -20.6940   -2.4410   18.5680 C.3   401  K36401      0.0001
     19  N19      -17.9600   -1.4940   13.4130 N.am  401  K36401     -0.2030
     20  C20      -17.8010   -2.0200   12.0920 C.3   401  K36401      0.1287
     21  C21      -17.2460   -3.4880   12.2140 C.3   401  K36401      0.2036
     22  O22      -17.6340   -4.1890   11.0460 O.3   401  K36401     -0.2185
     23  C24      -16.8160   -1.0720   11.2930 C.3   401  K36401      0.0335
     24  C25      -17.3320    0.3740   11.0560 C.3   401  K36401      0.0818
     25  C26      -18.4980    0.5010   10.0530 C.3   401  K36401      0.0326
     26  C27      -18.2280    1.8010    9.2670 C.3   401  K36401      0.1156
     27  N28      -16.7840    2.0200    9.4320 N.am  401  K36401     -0.2054
     28  C29      -16.2270    1.2590   10.4170 C.2   401  K36401      0.2410
     29  O30      -15.0680    1.2960   10.7380 O.2   401  K36401     -0.2734
@<TRIPOS>BOND
     1    26    27    1
     2    26    25    1
     3     8     9   ar
     4     8     7   ar
     5    27    28   am
     6     9    10   ar
     7    25    24    1
     8     7     6   ar
     9    28    29    2
    10    28    24    1
    11    10     5   ar
    12    22    21    1
    13    24    23    1
    14    23    20    1
    15     6     5   ar
    16     5     1    1
    17    20    21    1
    18    20    19    1
    19    14    13    2
    20    19    13   am
    21     1     2    1
    22    13    12    1
    23     4     3    2
    24     2     3    1
    25     3    11   am
    26    12    11    1
    27    12    15    1
    28    15    16    1
    29    16    17    1
    30    16    18    1
