R9U
  -OEChem-02242320033D

 43 46  0     1  0  0  0  0  0999 V2000
    1.1920    1.2710    0.8320 C   0  0  0  0  0  0  0  0  0  0  0  0
    1.5300    2.5760    1.1200 C   0  0  0  0  0  0  0  0  0  0  0  0
    2.7760    3.0710    0.7600 C   0  0  0  0  0  0  0  0  0  0  0  0
    3.6900    2.2640    0.1120 C   0  0  0  0  0  0  0  0  0  0  0  0
    3.3660    0.9440   -0.1850 C   0  0  0  0  0  0  0  0  0  0  0  0
    2.1050    0.4460    0.1790 C   0  0  0  0  0  0  0  0  0  0  0  0
    2.0720   -0.9550   -0.2670 C   0  0  0  0  0  0  0  0  0  0  0  0
    3.3120   -1.2140   -0.8710 C   0  0  0  0  0  0  0  0  0  0  0  0
   -1.6690    2.3910   -0.3010 C   0  0  0  0  0  0  0  0  0  0  0  0
   -2.7770   -0.6030    0.2150 C   0  0  0  0  0  0  0  0  0  0  0  0
   -2.5350   -2.0900    0.2340 C   0  0  1  0  0  0  0  0  0  0  0  0
   -1.1830   -2.3960   -0.4160 C   0  0  0  0  0  0  0  0  0  0  0  0
    1.1240   -1.9840   -0.2080 C   0  0  0  0  0  0  0  0  0  0  0  0
    2.6180   -3.3700   -1.2880 C   0  0  0  0  0  0  0  0  0  0  0  0
   -0.1320   -2.2750    1.7600 C   0  0  0  0  0  0  0  0  0  0  0  0
   -1.4940   -1.9710    2.3880 C   0  0  0  0  0  0  0  0  0  0  0  0
    3.0960    4.3520    1.0460 F   0  0  0  0  0  0  0  0  0  0  0  0
   -2.9240    0.0410   -0.9600 N   0  0  0  0  0  0  0  0  0  0  0  0
   -0.1120   -1.7750    0.3770 N   0  0  2  0  0  0  0  0  0  0  0  0
    4.0700   -0.0700   -0.8120 N   0  0  0  0  0  0  0  0  0  0  0  0
    3.5370   -2.4310   -1.3650 N   0  0  0  0  0  0  0  0  0  0  0  0
    1.4400   -3.1680   -0.7280 N   0  0  0  0  0  0  0  0  0  0  0  0
   -4.2750    1.8650   -0.0820 O   0  0  0  0  0  0  0  0  0  0  0  0
   -2.5240   -2.5550    1.5860 O   0  0  0  0  0  0  0  0  0  0  0  0
   -2.8400    0.0140    1.2570 O   0  0  0  0  0  0  0  0  0  0  0  0
   -3.3190    1.9920   -2.3600 O   0  0  0  0  0  0  0  0  0  0  0  0
   -3.1910    1.6760   -0.9800 S   0  0  0  0  0  0  0  0  0  0  0  0
    0.2230    0.8870    1.1170 H   0  0  0  0  0  0  0  0  0  0  0  0
    0.8220    3.2160    1.6260 H   0  0  0  0  0  0  0  0  0  0  0  0
    4.6570    2.6580   -0.1640 H   0  0  0  0  0  0  0  0  0  0  0  0
   -1.5120    2.0170    0.7110 H   0  0  0  0  0  0  0  0  0  0  0  0
   -0.8230    2.1090   -0.9280 H   0  0  0  0  0  0  0  0  0  0  0  0
   -1.7570    3.4770   -0.2770 H   0  0  0  0  0  0  0  0  0  0  0  0
   -3.3270   -2.5950   -0.3200 H   0  0  0  0  0  0  0  0  0  0  0  0
   -1.0310   -3.4750   -0.4510 H   0  0  0  0  0  0  0  0  0  0  0  0
   -1.1660   -1.9920   -1.4290 H   0  0  0  0  0  0  0  0  0  0  0  0
    2.8360   -4.3450   -1.6990 H   0  0  0  0  0  0  0  0  0  0  0  0
    0.6530   -1.7840    2.3360 H   0  0  0  0  0  0  0  0  0  0  0  0
    0.0380   -3.3520    1.7600 H   0  0  0  0  0  0  0  0  0  0  0  0
   -1.5330   -2.3900    3.3930 H   0  0  0  0  0  0  0  0  0  0  0  0
   -1.6390   -0.8920    2.4380 H   0  0  0  0  0  0  0  0  0  0  0  0
   -2.8740   -0.4520   -1.7930 H   0  0  0  0  0  0  0  0  0  0  0  0
    4.9710    0.0160   -1.1620 H   0  0  0  0  0  0  0  0  0  0  0  0
  9 27  1  0  0  0  0
 23 27  2  0  0  0  0
 18 27  1  0  0  0  0
 26 27  2  0  0  0  0
 10 18  1  0  0  0  0
 10 25  2  0  0  0  0
 10 11  1  0  0  0  0
 11 24  1  0  0  0  0
 16 24  1  0  0  0  0
 11 12  1  0  0  0  0
 15 16  1  0  0  0  0
 12 19  1  0  0  0  0
 15 19  1  0  0  0  0
 13 19  1  0  0  0  0
  1  2  2  0  0  0  0
  1  6  1  0  0  0  0
  2  3  1  0  0  0  0
 13 22  2  0  0  0  0
  7 13  1  0  0  0  0
  6  7  1  0  0  0  0
  5  6  2  0  0  0  0
 14 22  1  0  0  0  0
  3 17  1  0  0  0  0
  3  4  2  0  0  0  0
  7  8  2  0  0  0  0
  4  5  1  0  0  0  0
  5 20  1  0  0  0  0
 14 21  2  0  0  0  0
  8 21  1  0  0  0  0
  8 20  1  0  0  0  0
  1 28  1  0  0  0  0
  2 29  1  0  0  0  0
  4 30  1  0  0  0  0
  9 31  1  0  0  0  0
  9 32  1  0  0  0  0
  9 33  1  0  0  0  0
 11 34  1  0  0  0  0
 12 35  1  0  0  0  0
 12 36  1  0  0  0  0
 14 37  1  0  0  0  0
 15 38  1  0  0  0  0
 15 39  1  0  0  0  0
 16 40  1  0  0  0  0
 16 41  1  0  0  0  0
 18 42  1  0  0  0  0
 20 43  1  0  0  0  0
M  END
> <OPENEYE_ISO_SMILES>
CS(=O)(=O)NC(=O)[C@H]1C[N@@](CCO1)c2c3c4ccc(cc4[nH]c3ncn2)F

> <OPENEYE_INCHI>
InChI=1S/C16H16FN5O4S/c1-27(24,25)21-16(23)12-7-22(4-5-26-12)15-13-10-3-2-9(17)6-11(10)20-14(13)18-8-19-15/h2-3,6,8,12H,4-5,7H2,1H3,(H,21,23)(H,18,19,20)/t12-/m1/s1

> <OPENEYE_INCHIKEY>
NESBXOSECIYAHI-GFCCVEGCSA-N

> <FORMULA>
C16H16FN5O4S

$$$$
