R0A
  -OEChem-02242320033D

 46 50  0     1  0  0  0  0  0999 V2000
   -2.0610    0.5210   -3.5700 C   0  0  0  0  0  0  0  0  0  0  0  0
   -0.4760   -0.8180   -0.1330 N   0  0  2  0  0  0  0  0  0  0  0  0
   -2.3280   -0.2730   -1.6290 C   0  0  0  0  0  0  0  0  0  0  0  0
   -3.0320   -0.5110   -2.9700 C   0  0  0  0  0  0  0  0  0  0  0  0
   -1.1320   -1.1940   -1.3960 C   0  0  0  0  0  0  0  0  0  0  0  0
    1.5180   -3.7170    0.4880 C   0  0  0  0  0  0  0  0  0  0  0  0
    2.9830   -1.9400    0.4840 C   0  0  0  0  0  0  0  0  0  0  0  0
   -4.6070    1.8210    0.6950 O   0  0  0  0  0  0  0  0  0  0  0  0
    1.8980    1.5350   -0.0810 C   0  0  0  0  0  0  0  0  0  0  0  0
    2.7050    2.6520   -0.0990 C   0  0  0  0  0  0  0  0  0  0  0  0
   -5.6540    1.2120    2.5430 O   0  0  0  0  0  0  0  0  0  0  0  0
    4.0720    2.5300    0.1080 C   0  0  0  0  0  0  0  0  0  0  0  0
    4.6390    1.2910    0.3350 C   0  0  0  0  0  0  0  0  0  0  0  0
    3.8400    0.1540    0.3570 C   0  0  0  0  0  0  0  0  0  0  0  0
    2.4570    0.2800    0.1470 C   0  0  0  0  0  0  0  0  0  0  0  0
    1.9030   -1.0810    0.2290 C   0  0  0  0  0  0  0  0  0  0  0  0
    0.6180   -1.6270    0.1180 C   0  0  0  0  0  0  0  0  0  0  0  0
   -1.4320   -0.8640    0.9830 C   0  0  0  0  0  0  0  0  0  0  0  0
   -2.5760    0.1170    0.7160 C   0  0  2  0  0  0  0  0  0  0  0  0
   -1.9390    1.1140   -2.1560 C   0  0  0  0  0  0  0  0  0  0  0  0
   -3.5890    0.0430    1.8600 C   0  0  0  0  0  0  0  0  0  0  0  0
   -4.6540    1.0900    1.6570 C   0  0  0  0  0  0  0  0  0  0  0  0
   -3.2190   -0.2310   -0.5150 O   0  0  0  0  0  0  0  0  0  0  0  0
    4.8540    3.6310    0.0880 F   0  0  0  0  0  0  0  0  0  0  0  0
    4.1290   -1.1860    0.5570 N   0  0  0  0  0  0  0  0  0  0  0  0
    2.7400   -3.2450    0.6040 N   0  0  0  0  0  0  0  0  0  0  0  0
    0.4760   -2.9440    0.2490 N   0  0  0  0  0  0  0  0  0  0  0  0
   -1.1340    0.0830   -3.9410 H   0  0  0  0  0  0  0  0  0  0  0  0
   -2.5270    1.1960   -4.2870 H   0  0  0  0  0  0  0  0  0  0  0  0
   -4.0730   -0.1880   -2.9810 H   0  0  0  0  0  0  0  0  0  0  0  0
   -2.8960   -1.5190   -3.3620 H   0  0  0  0  0  0  0  0  0  0  0  0
   -0.4250   -1.0890   -2.2190 H   0  0  0  0  0  0  0  0  0  0  0  0
   -1.4730   -2.2270   -1.3360 H   0  0  0  0  0  0  0  0  0  0  0  0
    1.3610   -4.7810    0.5870 H   0  0  0  0  0  0  0  0  0  0  0  0
    0.8350    1.6320   -0.2430 H   0  0  0  0  0  0  0  0  0  0  0  0
    2.2720    3.6250   -0.2760 H   0  0  0  0  0  0  0  0  0  0  0  0
   -6.3130    1.8980    2.3710 H   0  0  0  0  0  0  0  0  0  0  0  0
    5.7030    1.2060    0.4950 H   0  0  0  0  0  0  0  0  0  0  0  0
   -1.8330   -1.8730    1.0760 H   0  0  0  0  0  0  0  0  0  0  0  0
   -0.9250   -0.5880    1.9070 H   0  0  0  0  0  0  0  0  0  0  0  0
   -2.1790    1.1290    0.6450 H   0  0  0  0  0  0  0  0  0  0  0  0
   -0.9240    1.4120   -1.8930 H   0  0  0  0  0  0  0  0  0  0  0  0
   -2.6780    1.8860   -1.9410 H   0  0  0  0  0  0  0  0  0  0  0  0
   -4.0490   -0.9450    1.8750 H   0  0  0  0  0  0  0  0  0  0  0  0
   -3.0810    0.2210    2.8080 H   0  0  0  0  0  0  0  0  0  0  0  0
    5.0150   -1.5420    0.7250 H   0  0  0  0  0  0  0  0  0  0  0  0
 21 22  1  0  0  0  0
  8 22  2  0  0  0  0
 11 22  1  0  0  0  0
 19 21  1  0  0  0  0
 19 23  1  0  0  0  0
 18 19  1  0  0  0  0
  2 18  1  0  0  0  0
  2 17  1  0  0  0  0
  2  5  1  0  0  0  0
 17 27  2  0  0  0  0
 16 17  1  0  0  0  0
  7 16  2  0  0  0  0
 15 16  1  0  0  0  0
  9 15  2  0  0  0  0
 14 15  1  0  0  0  0
 13 14  2  0  0  0  0
 14 25  1  0  0  0  0
 12 13  1  0  0  0  0
 10 12  2  0  0  0  0
 12 24  1  0  0  0  0
  9 10  1  0  0  0  0
  7 25  1  0  0  0  0
  7 26  1  0  0  0  0
  6 26  2  0  0  0  0
  6 27  1  0  0  0  0
  3  5  1  0  0  0  0
  3 20  1  0  0  0  0
  3 23  1  0  0  0  0
  3  4  1  0  0  0  0
  1  4  1  0  0  0  0
  1 20  1  0  0  0  0
  1 28  1  0  0  0  0
  1 29  1  0  0  0  0
  4 30  1  0  0  0  0
  4 31  1  0  0  0  0
  5 32  1  0  0  0  0
  5 33  1  0  0  0  0
  6 34  1  0  0  0  0
  9 35  1  0  0  0  0
 10 36  1  0  0  0  0
 11 37  1  0  0  0  0
 13 38  1  0  0  0  0
 18 39  1  0  0  0  0
 18 40  1  0  0  0  0
 19 41  1  0  0  0  0
 20 42  1  0  0  0  0
 20 43  1  0  0  0  0
 21 44  1  0  0  0  0
 21 45  1  0  0  0  0
 25 46  1  0  0  0  0
M  END
> <OPENEYE_ISO_SMILES>
c1cc2c(cc1F)[nH]c3c2c(ncn3)[N@@]4C[C@@H](OC5(C4)CCC5)CC(=O)O

> <OPENEYE_INCHI>
InChI=1S/C19H19FN4O3/c20-11-2-3-13-14(6-11)23-17-16(13)18(22-10-21-17)24-8-12(7-15(25)26)27-19(9-24)4-1-5-19/h2-3,6,10,12H,1,4-5,7-9H2,(H,25,26)(H,21,22,23)/t12-/m0/s1

> <OPENEYE_INCHIKEY>
HVBAXYAKMOCXCC-LBPRGKRZSA-N

> <FORMULA>
C19H19FN4O3

$$$$
