@<TRIPOS>MOLECULE
/home/pku/3cl/gett_pdb/5SS0/5SS0_mol2/ligand/5SS0_RJL.pdb
 39 40 0 0 0
SMALL
GASTEIGER

@<TRIPOS>ATOM
      1  C17      -48.3580  -34.0620    2.7910 C.ar  201  RJL201      0.1666
      2  C15      -47.2310  -34.2580    1.7920 C.2   201  RJL201      0.2661
      3  C13      -46.1750  -35.7080    0.0340 C.3   201  RJL201      0.0275
      4  C12      -46.5630  -35.3100   -1.3890 C.3   201  RJL201      0.0275
      5  C20      -50.3320  -33.6780    4.6160 C.ar  201  RJL201     -0.0401
      6  C19      -49.2790  -32.7930    4.4720 C.ar  201  RJL201      0.0287
      7  C01      -41.9990  -33.9420   -7.1040 C.3   201  RJL201      0.0789
      8  C03      -41.8520  -35.5780   -5.4250 C.ar  201  RJL201      0.1388
      9  C04      -41.4530  -36.8490   -5.0480 C.ar  201  RJL201      0.0692
     10  C06      -42.9200  -36.8530   -3.2960 C.ar  201  RJL201      0.0399
     11  C07      -43.3750  -35.5840   -3.6060 C.ar  201  RJL201      0.0582
     12  C08      -42.8350  -34.9200   -4.6910 C.ar  201  RJL201     -0.0049
     13  C09      -44.4540  -34.9530   -2.7300 C.2   201  RJL201      0.2457
     14  C21      -50.3890  -34.8050    3.8100 C.ar  201  RJL201     -0.0165
     15  C22      -49.3760  -34.9990    2.8830 C.ar  201  RJL201      0.1472
     16  N05      -41.9850  -37.4540   -4.0060 N.ar  201  RJL201     -0.2589
     17  N11      -45.5140  -35.8100   -2.2470 N.am  201  RJL201     -0.3098
     18  N14      -47.2420  -35.4630    0.9800 N.am  201  RJL201     -0.3085
     19  N18      -48.3390  -33.0120    3.5810 N.ar  201  RJL201     -0.2468
     20  O02      -41.2520  -34.9740   -6.5340 O.3   201  RJL201     -0.4936
     21  O10      -44.4220  -33.8050   -2.4400 O.2   201  RJL201     -0.2701
     22  O16      -46.3670  -33.4390    1.7100 O.2   201  RJL201     -0.2684
     23  O23      -49.3850  -36.1170    2.0380 O.3   201  RJL201     -0.5045
     24 H132      -45.3040  -35.1410    0.3370 H     201  RJL201      0.0477
     25 H131      -45.9240  -36.7670    0.0530 H     201  RJL201      0.0477
     26 H122      -47.5100  -35.7640   -1.6600 H     201  RJL201      0.0477
     27 H121      -46.6290  -34.2300   -1.4610 H     201  RJL201      0.0477
     28 H201      -51.1010  -33.4910    5.3490 H     201  RJL201      0.0634
     29 H191      -49.2260  -31.9170    5.0970 H     201  RJL201      0.0830
     30 H013      -41.4620  -33.5530   -7.9480 H     201  RJL201      0.0660
     31 H011      -42.1670  -33.1280   -6.3920 H     201  RJL201      0.0660
     32 H012      -42.9410  -34.3560   -7.4540 H     201  RJL201      0.0660
     33 H041      -40.6900  -37.3590   -5.6230 H     201  RJL201      0.0867
     34 H061      -43.3440  -37.3610   -2.4440 H     201  RJL201      0.0837
     35 H081      -43.1800  -33.9260   -4.9560 H     201  RJL201      0.0663
     36 H211      -51.2000  -35.5170    3.9080 H     201  RJL201      0.0655
     37 H111      -45.5030  -36.7690   -2.5040 H     201  RJL201      0.1491
     38 H141      -47.9850  -36.1390    1.0810 H     201  RJL201      0.1491
     39 H231      -50.1250  -36.6640    2.2410 H     201  RJL201      0.2922
@<TRIPOS>BOND
     1    30     7    1
     2    32     7    1
     3     7    20    1
     4     7    31    1
     5    20     8    1
     6    33     9    1
     7     8     9   ar
     8     8    12   ar
     9     9    16   ar
    10    35    12    1
    11    12    11   ar
    12    16    10   ar
    13    11    10   ar
    14    11    13    1
    15    10    34    1
    16    13    21    2
    17    13    17   am
    18    37    17    1
    19    17     4    1
    20    26     4    1
    21    27     4    1
    22     4     3    1
    23     3    25    1
    24     3    24    1
    25     3    18    1
    26    18    38    1
    27    18     2   am
    28    22     2    2
    29     2     1    1
    30    23    39    1
    31    23    15    1
    32     1    15   ar
    33     1    19   ar
    34    15    14   ar
    35    19     6   ar
    36    14    36    1
    37    14     5   ar
    38     6     5   ar
    39     6    29    1
    40     5    28    1
