WWP
  -OEChem-02242320043D

 31 33  0     0  0  0  0  0  0999 V2000
   -0.6510   -1.3470   -0.8120 C   0  0  0  0  0  0  0  0  0  0  0  0
   -3.4990    0.8720    0.2910 C   0  0  0  0  0  0  0  0  0  0  0  0
   -2.9380   -1.5270    0.7310 C   0  0  0  0  0  0  0  0  0  0  0  0
    2.4780   -1.7730   -0.2010 C   0  0  0  0  0  0  0  0  0  0  0  0
    3.8480   -0.1910    0.7840 C   0  0  0  0  0  0  0  0  0  0  0  0
    3.1070    0.8410    0.1830 C   0  0  0  0  0  0  0  0  0  0  0  0
    2.1950    2.6380   -0.5780 C   0  0  0  0  0  0  0  0  0  0  0  0
    2.0120    0.4910   -0.6380 C   0  0  0  0  0  0  0  0  0  0  0  0
    0.5960   -1.2490   -1.6530 C   0  0  0  0  0  0  0  0  0  0  0  0
   -1.4670   -0.2420   -0.6540 C   0  0  0  0  0  0  0  0  0  0  0  0
   -2.6100   -0.3320    0.1180 C   0  0  0  0  0  0  0  0  0  0  0  0
   -2.1290   -2.6350    0.5620 C   0  0  0  0  0  0  0  0  0  0  0  0
   -0.9820   -2.5430   -0.2040 C   0  0  0  0  0  0  0  0  0  0  0  0
   -3.9670    1.2900   -0.9600 F   0  0  0  0  0  0  0  0  0  0  0  0
   -4.5850    0.5370    1.1060 F   0  0  0  0  0  0  0  0  0  0  0  0
   -2.7710    1.9080    0.8860 F   0  0  0  0  0  0  0  0  0  0  0  0
    4.9190    0.1010    1.5900 N   0  0  0  0  0  0  0  0  0  0  0  0
    3.1690    2.1830    0.1810 N   0  0  0  0  0  0  0  0  0  0  0  0
    1.4910    1.6270   -1.0760 N   0  0  0  0  0  0  0  0  0  0  0  0
    1.7230   -0.8430   -0.8090 N   0  0  0  0  0  0  0  0  0  0  0  0
    3.4940   -1.4610    0.5610 N   0  0  0  0  0  0  0  0  0  0  0  0
   -3.8320   -1.5980    1.3330 H   0  0  0  0  0  0  0  0  0  0  0  0
    2.2340   -2.8160   -0.3420 H   0  0  0  0  0  0  0  0  0  0  0  0
    1.9950    3.6820   -0.7670 H   0  0  0  0  0  0  0  0  0  0  0  0
    0.8090   -2.2190   -2.1020 H   0  0  0  0  0  0  0  0  0  0  0  0
    0.4460   -0.5090   -2.4400 H   0  0  0  0  0  0  0  0  0  0  0  0
   -1.2110    0.6910   -1.1320 H   0  0  0  0  0  0  0  0  0  0  0  0
   -2.3850   -3.5690    1.0410 H   0  0  0  0  0  0  0  0  0  0  0  0
   -0.3500   -3.4090   -0.3360 H   0  0  0  0  0  0  0  0  0  0  0  0
    5.1700    1.0250    1.7470 H   0  0  0  0  0  0  0  0  0  0  0  0
    5.4260   -0.6160    2.0010 H   0  0  0  0  0  0  0  0  0  0  0  0
  2 16  1  0  0  0  0
  3 12  2  0  0  0  0
 12 13  1  0  0  0  0
  3 11  1  0  0  0  0
  1 13  2  0  0  0  0
  2 11  1  0  0  0  0
 10 11  2  0  0  0  0
  2 15  1  0  0  0  0
  2 14  1  0  0  0  0
  1 10  1  0  0  0  0
  1  9  1  0  0  0  0
  9 20  1  0  0  0  0
  4 20  1  0  0  0  0
  4 21  2  0  0  0  0
  8 20  1  0  0  0  0
  5 21  1  0  0  0  0
  8 19  2  0  0  0  0
  6  8  1  0  0  0  0
  7 19  1  0  0  0  0
  5  6  2  0  0  0  0
  5 17  1  0  0  0  0
  6 18  1  0  0  0  0
  7 18  2  0  0  0  0
  3 22  1  0  0  0  0
  4 23  1  0  0  0  0
  7 24  1  0  0  0  0
  9 25  1  0  0  0  0
  9 26  1  0  0  0  0
 10 27  1  0  0  0  0
 12 28  1  0  0  0  0
 13 29  1  0  0  0  0
 17 30  1  0  0  0  0
 17 31  1  0  0  0  0
M  END
> <OPENEYE_ISO_SMILES>
c1cc(cc(c1)C(F)(F)F)Cn2cnc(c-3ncnc23)N

> <OPENEYE_INCHI>
InChI=1S/C13H10F3N5/c14-13(15,16)9-3-1-2-8(4-9)5-21-7-20-11(17)10-12(21)19-6-18-10/h1-4,6-7H,5,17H2

> <OPENEYE_INCHIKEY>
XBJYKUQVYDSDTN-UHFFFAOYSA-N

> <FORMULA>
C13H10F3N5

$$$$
