@<TRIPOS>MOLECULE
/home/pku/3cl/gett_pdb/7LZX/7LZX_mol2/ligand/7LZX_YMG.pdb
 30 31 0 0 0
SMALL
GASTEIGER

@<TRIPOS>ATOM
      1  C11        9.0970   19.8920   27.4140 C.3   401  YMG401      0.1287
      2  C12        7.9990   19.8840   26.3190 C.3   401  YMG401      0.0335
      3  C13        7.7420   21.1750   25.6950 C.3   401  YMG401      0.0818
      4  C14        6.6940   21.0210   24.5010 C.2   401  YMG401      0.2410
      5  C16        6.0280   22.7080   26.0320 C.3   401  YMG401      0.1156
      6  C02       11.2830   24.0370   25.6810 C.2   401  YMG401      0.4214
      7  C04       12.2700   22.0690   26.9140 C.3   401  YMG401      0.1761
      8  C05       13.3820   21.8100   27.9210 C.3   401  YMG401      0.0312
      9  C06       14.7310   22.2820   27.3980 C.3   401  YMG401      0.0022
     10  C07       15.1190   21.5180   26.1390 C.3   401  YMG401      0.0001
     11  C08       15.8070   22.1620   28.4720 C.3   401  YMG401      0.0001
     12  C09       10.9550   21.5760   27.4920 C.2   401  YMG401      0.2614
     13  C17        7.0460   22.0640   26.6960 C.3   401  YMG401      0.0326
     14  C19        9.3400   18.5260   28.0510 C.3   401  YMG401      0.2036
     15  C23       10.2870   25.9250   24.6980 C.3   401  YMG401      0.1705
     16  C24        8.8820   26.0640   25.2790 C.3   401  YMG401      0.0437
     17  C25        7.9460   26.8010   24.3290 C.3   401  YMG401      0.0037
     18  C26        8.5050   28.1540   23.8990 C.3   401  YMG401      0.0002
     19  C27        7.5930   28.7210   22.8220 C.3   401  YMG401      0.0000
     20  C28        8.4940   29.1230   25.0820 C.3   401  YMG401      0.0000
     21  C29        9.9180   28.0420   23.3380 C.3   401  YMG401      0.0037
     22  C30       10.8550   27.2760   24.2660 C.3   401  YMG401      0.0437
     23  N03       12.1870   23.4870   26.6600 N.am  401  YMG401     -0.1611
     24  N10       10.3500   20.4110   26.8990 N.am  401  YMG401     -0.2030
     25  N15        5.7130   21.9090   24.7090 N.am  401  YMG401     -0.2054
     26  O01       10.6950   23.3480   24.9250 O.2   401  YMG401     -0.2246
     27  O18        6.7670   20.2840   23.5970 O.2   401  YMG401     -0.2734
     28  O20        8.1470   17.9700   28.5360 O.3   401  YMG401     -0.2185
     29  O21       10.4270   22.1450   28.3830 O.2   401  YMG401     -0.2715
     30  O22       11.1360   25.4200   25.6700 O.3   401  YMG401     -0.4373
@<TRIPOS>BOND
     1    19    18    1
     2    21    18    1
     3    21    22    1
     4    27     4    2
     5    18    17    1
     6    18    20    1
     7    22    15    1
     8    17    16    1
     9     4    25   am
    10     4     3    1
    11    15    16    1
    12    15    30    1
    13    25     5    1
    14    26     6    2
    15    30     6    1
    16     6    23   am
    17     3     2    1
    18     3    13    1
    19     5    13    1
    20    10     9    1
    21     2     1    1
    22    23     7    1
    23    24     1    1
    24    24    12   am
    25     7    12    1
    26     7     8    1
    27     9     8    1
    28     9    11    1
    29     1    14    1
    30    12    29    2
    31    14    28    1
