AWD
  -OEChem-02242320013D

 33 34  0     0  0  0  0  0  0999 V2000
   -4.4280    0.2610    0.0930 N   0  0  0  0  0  0  0  0  0  0  0  0
    0.3740    0.4530   -0.5720 N   0  0  0  0  0  0  0  0  0  0  0  0
   -2.7170   -1.4870   -0.0420 C   0  0  0  0  0  0  0  0  0  0  0  0
   -3.8140   -0.8570    0.8230 C   0  0  0  0  0  0  0  0  0  0  0  0
   -0.4560   -0.5680   -0.2790 C   0  0  0  0  0  0  0  0  0  0  0  0
    1.7430    0.3440   -0.2950 C   0  0  0  0  0  0  0  0  0  0  0  0
    2.4550    1.4550    0.1350 C   0  0  0  0  0  0  0  0  0  0  0  0
    4.4470    0.1290    0.2530 C   0  0  0  0  0  0  0  0  0  0  0  0
   -5.5970    0.7820    0.8150 C   0  0  0  0  0  0  0  0  0  0  0  0
   -3.4520    1.3270   -0.1680 C   0  0  0  0  0  0  0  0  0  0  0  0
   -2.3400    0.7860   -1.0730 C   0  0  0  0  0  0  0  0  0  0  0  0
   -1.7850   -0.4280   -0.4570 N   0  0  0  0  0  0  0  0  0  0  0  0
   -0.0060   -1.6140    0.1470 O   0  0  0  0  0  0  0  0  0  0  0  0
    3.8050    1.3460    0.4080 C   0  0  0  0  0  0  0  0  0  0  0  0
    3.7360   -0.9830   -0.1650 C   0  0  0  0  0  0  0  0  0  0  0  0
    2.3870   -0.8770   -0.4440 C   0  0  0  0  0  0  0  0  0  0  0  0
    5.7670    0.0240    0.5200 F   0  0  0  0  0  0  0  0  0  0  0  0
    0.0240    1.2620   -0.9750 H   0  0  0  0  0  0  0  0  0  0  0  0
   -2.1820   -2.2400    0.5360 H   0  0  0  0  0  0  0  0  0  0  0  0
   -3.1650   -1.9470   -0.9230 H   0  0  0  0  0  0  0  0  0  0  0  0
   -3.3780   -0.4890    1.7520 H   0  0  0  0  0  0  0  0  0  0  0  0
   -4.5740   -1.6050    1.0490 H   0  0  0  0  0  0  0  0  0  0  0  0
    1.9550    2.4050    0.2560 H   0  0  0  0  0  0  0  0  0  0  0  0
   -6.0770    1.5570    0.2170 H   0  0  0  0  0  0  0  0  0  0  0  0
   -6.3040   -0.0280    0.9950 H   0  0  0  0  0  0  0  0  0  0  0  0
   -5.2770    1.2040    1.7670 H   0  0  0  0  0  0  0  0  0  0  0  0
   -3.9490    2.1620   -0.6610 H   0  0  0  0  0  0  0  0  0  0  0  0
   -3.0210    1.6650    0.7750 H   0  0  0  0  0  0  0  0  0  0  0  0
   -2.7510    0.5450   -2.0530 H   0  0  0  0  0  0  0  0  0  0  0  0
   -1.5570    1.5370   -1.1800 H   0  0  0  0  0  0  0  0  0  0  0  0
    4.3600    2.2100    0.7420 H   0  0  0  0  0  0  0  0  0  0  0  0
    4.2390   -1.9320   -0.2850 H   0  0  0  0  0  0  0  0  0  0  0  0
    1.8330   -1.7450   -0.7690 H   0  0  0  0  0  0  0  0  0  0  0  0
  8 17  1  0  0  0  0
  8 15  2  0  0  0  0
 15 16  1  0  0  0  0
  8 14  1  0  0  0  0
  6 16  2  0  0  0  0
  7 14  2  0  0  0  0
  6  7  1  0  0  0  0
  2  6  1  0  0  0  0
  2  5  1  0  0  0  0
  3  4  1  0  0  0  0
  3 12  1  0  0  0  0
  1  4  1  0  0  0  0
  5 12  1  0  0  0  0
  5 13  2  0  0  0  0
 11 12  1  0  0  0  0
 10 11  1  0  0  0  0
  1  9  1  0  0  0  0
  1 10  1  0  0  0  0
  2 18  1  0  0  0  0
  3 19  1  0  0  0  0
  3 20  1  0  0  0  0
  4 21  1  0  0  0  0
  4 22  1  0  0  0  0
  7 23  1  0  0  0  0
  9 24  1  0  0  0  0
  9 25  1  0  0  0  0
  9 26  1  0  0  0  0
 10 27  1  0  0  0  0
 10 28  1  0  0  0  0
 11 29  1  0  0  0  0
 11 30  1  0  0  0  0
 14 31  1  0  0  0  0
 15 32  1  0  0  0  0
 16 33  1  0  0  0  0
M  END
> <OPENEYE_ISO_SMILES>
CN1CCN(CC1)C(=O)Nc2ccc(cc2)F

> <OPENEYE_INCHI>
InChI=1S/C12H16FN3O/c1-15-6-8-16(9-7-15)12(17)14-11-4-2-10(13)3-5-11/h2-5H,6-9H2,1H3,(H,14,17)

> <OPENEYE_INCHIKEY>
MDBPFVSVLGYVCQ-UHFFFAOYSA-N

> <FORMULA>
C12H16FN3O

$$$$
