GWS
  -OEChem-02242320023D

 34 35  0     0  0  0  0  0  0999 V2000
    4.7530    0.2100    0.7400 N   0  0  0  0  0  0  0  0  0  0  0  0
   -3.5920   -1.5470    0.6690 C   0  0  0  0  0  0  0  0  0  0  0  0
   -4.8890   -0.7540    0.5000 C   0  0  0  0  0  0  0  0  0  0  0  0
   -4.7690    0.1680   -0.7150 C   0  0  0  0  0  0  0  0  0  0  0  0
   -3.6030    1.1360   -0.5070 C   0  0  0  0  0  0  0  0  0  0  0  0
    2.5300    0.4870    0.0210 C   0  0  0  0  0  0  0  0  0  0  0  0
    3.8810   -1.2690   -0.8650 C   0  0  0  0  0  0  0  0  0  0  0  0
    0.1440   -0.6680   -0.2090 O   0  0  0  0  0  0  0  0  0  0  0  0
    0.1540    0.5390   -0.0860 C   0  0  0  0  0  0  0  0  0  0  0  0
    1.3210    1.1890    0.0900 N   0  0  0  0  0  0  0  0  0  0  0  0
    3.6130    0.8690    0.8020 C   0  0  0  0  0  0  0  0  0  0  0  0
    4.9120   -0.8280   -0.0570 C   0  0  0  0  0  0  0  0  0  0  0  0
    2.6650   -0.6060   -0.8320 C   0  0  0  0  0  0  0  0  0  0  0  0
   -1.1390    1.3120   -0.1300 C   0  0  0  0  0  0  0  0  0  0  0  0
   -2.3050    0.3430   -0.3380 C   0  0  0  0  0  0  0  0  0  0  0  0
   -2.4260   -0.5790    0.8770 C   0  0  0  0  0  0  0  0  0  0  0  0
   -3.6780   -2.2040    1.5350 H   0  0  0  0  0  0  0  0  0  0  0  0
   -3.4120   -2.1450   -0.2250 H   0  0  0  0  0  0  0  0  0  0  0  0
   -5.7200   -1.4440    0.3510 H   0  0  0  0  0  0  0  0  0  0  0  0
   -5.0690   -0.1560    1.3930 H   0  0  0  0  0  0  0  0  0  0  0  0
   -4.5890   -0.4300   -1.6090 H   0  0  0  0  0  0  0  0  0  0  0  0
   -5.6930    0.7330   -0.8360 H   0  0  0  0  0  0  0  0  0  0  0  0
   -3.5170    1.7930   -1.3730 H   0  0  0  0  0  0  0  0  0  0  0  0
   -3.7820    1.7340    0.3860 H   0  0  0  0  0  0  0  0  0  0  0  0
    4.0210   -2.1200   -1.5150 H   0  0  0  0  0  0  0  0  0  0  0  0
    1.3240    2.1430    0.2650 H   0  0  0  0  0  0  0  0  0  0  0  0
    3.5200    1.7150    1.4660 H   0  0  0  0  0  0  0  0  0  0  0  0
    5.8620   -1.3420   -0.0790 H   0  0  0  0  0  0  0  0  0  0  0  0
    1.8410   -0.9290   -1.4520 H   0  0  0  0  0  0  0  0  0  0  0  0
   -1.2750    1.8470    0.8100 H   0  0  0  0  0  0  0  0  0  0  0  0
   -1.1080    2.0250   -0.9530 H   0  0  0  0  0  0  0  0  0  0  0  0
   -2.1260   -0.2550   -1.2320 H   0  0  0  0  0  0  0  0  0  0  0  0
   -2.6050    0.0190    1.7700 H   0  0  0  0  0  0  0  0  0  0  0  0
   -1.5010   -1.1430    0.9970 H   0  0  0  0  0  0  0  0  0  0  0  0
  1 11  2  0  0  0  0
  1 12  1  0  0  0  0
  6 11  1  0  0  0  0
  7 12  2  0  0  0  0
  6 10  1  0  0  0  0
  6 13  2  0  0  0  0
  9 10  1  0  0  0  0
  7 13  1  0  0  0  0
  9 14  1  0  0  0  0
 14 15  1  0  0  0  0
  8  9  2  0  0  0  0
 15 16  1  0  0  0  0
  2 16  1  0  0  0  0
  5 15  1  0  0  0  0
  4  5  1  0  0  0  0
  2  3  1  0  0  0  0
  3  4  1  0  0  0  0
  2 17  1  0  0  0  0
  2 18  1  0  0  0  0
  3 19  1  0  0  0  0
  3 20  1  0  0  0  0
  4 21  1  0  0  0  0
  4 22  1  0  0  0  0
  5 23  1  0  0  0  0
  5 24  1  0  0  0  0
  7 25  1  0  0  0  0
 10 26  1  0  0  0  0
 11 27  1  0  0  0  0
 12 28  1  0  0  0  0
 13 29  1  0  0  0  0
 14 30  1  0  0  0  0
 14 31  1  0  0  0  0
 15 32  1  0  0  0  0
 16 33  1  0  0  0  0
 16 34  1  0  0  0  0
M  END
> <OPENEYE_ISO_SMILES>
c1cc(cnc1)NC(=O)CC2CCCCC2

> <OPENEYE_INCHI>
InChI=1S/C13H18N2O/c16-13(9-11-5-2-1-3-6-11)15-12-7-4-8-14-10-12/h4,7-8,10-11H,1-3,5-6,9H2,(H,15,16)

> <OPENEYE_INCHIKEY>
SIURWXONEBYXJD-UHFFFAOYSA-N

> <FORMULA>
C13H18N2O

$$$$
