@<TRIPOS>MOLECULE
/home/pku/3cl/gett_pdb/5RGX/5RGX_mol2/ligand/5RGX_UGP.pdb
 19 20 0 0 0
SMALL
GASTEIGER

@<TRIPOS>ATOM
      1  N1         7.3950   -0.4380   21.1070 N.am  1001  UGP1001    -0.1777
      2  C4         7.2520    0.0010   18.7010 C.ar  1001  UGP1001     0.1151
      3  C5         6.7340    0.1140   19.9930 C.ar  1001  UGP1001     0.0885
      4  C6         8.5590    0.0080   21.6110 C.2   1001  UGP1001     0.2500
      5  C7         9.0690   -0.7750   22.8040 C.3   1001  UGP1001     0.1135
      6  C8        10.5550   -0.5470   22.9520 C.ar  1001  UGP1001    -0.0124
      7  C10       12.4090    0.5310   24.0600 C.ar  1001  UGP1001     0.0004
      8  C13       13.7240   -1.4890   21.2250 C.1   1001  UGP1001     0.1004
      9  N2        14.4390   -2.0140   20.5050 N.1   1001  UGP1001    -0.1908
     10  C12       12.8100   -0.8610   22.1440 C.ar  1001  UGP1001     0.0681
     11  C11       13.2910   -0.0250   23.1490 C.ar  1001  UGP1001     0.0103
     12  C9        11.0520    0.2700   23.9610 C.ar  1001  UGP1001    -0.0037
     13  C14       11.4440   -1.1190   22.0450 C.ar  1001  UGP1001     0.0065
     14  O          9.1920    0.9450   21.1340 O.2   1001  UGP1001    -0.2726
     15  C1         5.5250    0.8010   20.1800 C.ar  1001  UGP1001    -0.0034
     16  C          4.9280    1.0040   21.5500 C.3   1001  UGP1001     0.0325
     17  N          6.6530    0.5190   17.6220 N.ar  1001  UGP1001    -0.2410
     18  C3         5.4960    1.1630   17.8110 C.ar  1001  UGP1001     0.0987
     19  C2         4.9090    1.3300   19.0500 C.ar  1001  UGP1001     0.0177
@<TRIPOS>BOND
     1    17    18   ar
     2    17     2   ar
     3    18    19   ar
     4     2     3   ar
     5    19    15   ar
     6     3    15   ar
     7     3     1    1
     8    15    16    1
     9     9     8    3
    10     1     4   am
    11    14     4    2
    12     8    10    1
    13     4     5    1
    14    13    10   ar
    15    13     6   ar
    16    10    11   ar
    17     5     6    1
    18     6    12   ar
    19    11     7   ar
    20    12     7   ar
