S7D
  -OEChem-02242320043D

 30 31  0     1  0  0  0  0  0999 V2000
    2.5670    0.3820    0.0660 N   0  0  0  0  0  0  0  0  0  0  0  0
   -2.7110    1.6280    0.6980 C   0  0  0  0  0  0  0  0  0  0  0  0
    0.2190   -0.1140   -0.2940 C   0  0  0  0  0  0  0  0  0  0  0  0
    1.2290    0.9720   -0.0280 C   0  0  0  0  0  0  0  0  0  0  0  0
    3.6470    0.7450   -0.6560 C   0  0  0  0  0  0  0  0  0  0  0  0
    4.6830   -0.0340   -0.2690 C   0  0  0  0  0  0  0  0  0  0  0  0
   -1.0870    0.1960   -0.4200 N   0  0  0  0  0  0  0  0  0  0  0  0
   -4.3750   -1.6320   -0.0250 C   0  0  0  0  0  0  0  0  0  0  0  0
   -3.6940    0.6630    0.3170 O   0  0  0  0  0  0  0  0  0  0  0  0
   -3.2270   -0.6880    0.3390 C   0  0  2  0  0  0  0  0  0  0  0  0
   -2.0920   -0.8470   -0.6790 C   0  0  0  0  0  0  0  0  0  0  0  0
   -1.5500    1.5880   -0.3010 C   0  0  0  0  0  0  0  0  0  0  0  0
    4.2200   -0.9030    0.7240 C   0  0  0  0  0  0  0  0  0  0  0  0
    2.9510   -0.6550    0.9260 N   0  0  0  0  0  0  0  0  0  0  0  0
    0.5800   -1.2670   -0.3950 O   0  0  0  0  0  0  0  0  0  0  0  0
   -3.1580    2.6220    0.6980 H   0  0  0  0  0  0  0  0  0  0  0  0
   -2.3410    1.3960    1.6970 H   0  0  0  0  0  0  0  0  0  0  0  0
    0.9860    1.4730    0.9090 H   0  0  0  0  0  0  0  0  0  0  0  0
    1.2070    1.6960   -0.8430 H   0  0  0  0  0  0  0  0  0  0  0  0
    3.6790    1.5190   -1.4090 H   0  0  0  0  0  0  0  0  0  0  0  0
    5.6900    0.0080   -0.6580 H   0  0  0  0  0  0  0  0  0  0  0  0
   -4.7410   -1.3910   -1.0230 H   0  0  0  0  0  0  0  0  0  0  0  0
   -4.0180   -2.6620   -0.0070 H   0  0  0  0  0  0  0  0  0  0  0  0
   -5.1840   -1.5160    0.6970 H   0  0  0  0  0  0  0  0  0  0  0  0
   -2.8590   -0.9300    1.3360 H   0  0  0  0  0  0  0  0  0  0  0  0
   -2.4860   -0.7340   -1.6890 H   0  0  0  0  0  0  0  0  0  0  0  0
   -1.6360   -1.8310   -0.5700 H   0  0  0  0  0  0  0  0  0  0  0  0
   -1.8890    1.9460   -1.2730 H   0  0  0  0  0  0  0  0  0  0  0  0
   -0.7350    2.2160    0.0580 H   0  0  0  0  0  0  0  0  0  0  0  0
    4.8080   -1.6500    1.2370 H   0  0  0  0  0  0  0  0  0  0  0  0
  8 10  1  0  0  0  0
  9 10  1  0  0  0  0
 10 11  1  0  0  0  0
  2  9  1  0  0  0  0
  7 11  1  0  0  0  0
  2 12  1  0  0  0  0
  7 12  1  0  0  0  0
  3  7  1  0  0  0  0
  3  4  1  0  0  0  0
  1  4  1  0  0  0  0
  3 15  2  0  0  0  0
  1 14  1  0  0  0  0
  1  5  1  0  0  0  0
 13 14  2  0  0  0  0
  5  6  2  0  0  0  0
  6 13  1  0  0  0  0
  2 16  1  0  0  0  0
  2 17  1  0  0  0  0
  4 18  1  0  0  0  0
  4 19  1  0  0  0  0
  5 20  1  0  0  0  0
  6 21  1  0  0  0  0
  8 22  1  0  0  0  0
  8 23  1  0  0  0  0
  8 24  1  0  0  0  0
 10 25  1  0  0  0  0
 11 26  1  0  0  0  0
 11 27  1  0  0  0  0
 12 28  1  0  0  0  0
 12 29  1  0  0  0  0
 13 30  1  0  0  0  0
M  END
> <OPENEYE_ISO_SMILES>
C[C@H]1CN(CCO1)C(=O)Cn2cccn2

> <OPENEYE_INCHI>
InChI=1S/C10H15N3O2/c1-9-7-12(5-6-15-9)10(14)8-13-4-2-3-11-13/h2-4,9H,5-8H2,1H3/t9-/m0/s1

> <OPENEYE_INCHIKEY>
YJMLTHJLDUBVIC-VIFPVBQESA-N

> <FORMULA>
C10H15N3O2

$$$$
