@<TRIPOS>MOLECULE
/home/pku/3cl/gett_pdb/8E5X/8E5X_mol2/ligand/8E5X_UO9.pdb
 34 35 0 0 0
SMALL
GASTEIGER

@<TRIPOS>ATOM
      1  C5        15.2130   22.0490   28.9270 C.3   401  UO9401      0.0001
      2  C10        7.3230   21.0570   25.9410 C.3   401  UO9401      0.0818
      3  C1        10.9610   24.0040   25.7920 C.2   401  UO9401      0.4215
      4  C2        11.7620   22.1190   27.0960 C.3   401  UO9401      0.1761
      5  C3        12.8410   21.8070   28.1310 C.3   401  UO9401      0.0312
      6  C4        14.2630   22.2070   27.7390 C.3   401  UO9401      0.0022
      7  C6        14.7520   21.3990   26.5490 C.3   401  UO9401      0.0001
      8  C7        10.4060   21.6220   27.6010 C.2   401  UO9401      0.2614
      9  C8         8.7660   19.7910   27.6280 C.3   401  UO9401      0.1287
     10  C14        8.9870   18.4320   28.2540 C.3   401  UO9401      0.2036
     11  C13        6.5090   21.8600   26.9520 C.3   401  UO9401      0.0326
     12  C12        5.4310   22.5570   26.1240 C.3   401  UO9401      0.1156
     13  C11        6.4040   20.9480   24.7370 C.2   401  UO9401      0.2410
     14  C9         7.8160   19.6980   26.4350 C.3   401  UO9401      0.0335
     15  C15        9.8100   25.8830   24.9810 C.3   401  UO9401      0.2227
     16  C16       10.1600   27.3340   24.6510 C.3   401  UO9401      0.1130
     17  C17        9.3830   27.7640   23.4030 C.3   401  UO9401      0.0176
     18  C19       10.5670   29.8470   25.8850 C.ar  401  UO9401      0.0562
     19  O3         9.7220   18.5370   29.4580 O.3   401  UO9401     -0.2185
     20  O1        10.4280   23.3100   24.9560 O.2   401  UO9401     -0.2246
     21  C20       10.0520   30.9450   25.2260 C.ar  401  UO9401      0.0086
     22  C22       12.1170   32.1150   25.5690 C.ar  401  UO9401      0.0000
     23  C18       11.6740   27.4370   24.4370 C.3   401  UO9401      0.0176
     24  C21       10.8320   32.0810   25.0740 C.ar  401  UO9401      0.0006
     25  C23       12.6310   31.0150   26.2200 C.ar  401  UO9401      0.0006
     26  C24       11.8580   29.8750   26.3790 C.ar  401  UO9401      0.0086
     27  N1        11.7410   23.5420   26.7840 N.am  401  UO9401     -0.1611
     28  N2        10.0500   20.3820   27.2500 N.am  401  UO9401     -0.2030
     29  N3         5.3640   21.7510   24.9090 N.am  401  UO9401     -0.2054
     30  O2         6.6120   20.2430   23.7350 O.2   401  UO9401     -0.2734
     31  O4         9.6940   22.3510   28.2940 O.2   401  UO9401     -0.2715
     32  O5        10.8150   25.3360   25.8750 O.3   401  UO9401     -0.4325
     33  O6        10.0630   27.6820   27.3190 O.2   401  UO9401     -0.2514
     34  S1         9.5690   28.3660   26.0780 S.O   401  UO9401      0.0666
@<TRIPOS>BOND
     1    17    16    1
     2    30    13    2
     3    23    16    1
     4    16    15    1
     5    16    34    1
     6    13    29   am
     7    13     2    1
     8    29    12    1
     9    20     3    2
    10    15    32    1
    11    24    21   ar
    12    24    22   ar
    13    21    18   ar
    14    22    25   ar
    15     3    32    1
    16     3    27   am
    17    18    34    1
    18    18    26   ar
    19     2    14    1
    20     2    11    1
    21    34    33    2
    22    12    11    1
    23    25    26   ar
    24    14     9    1
    25     7     6    1
    26    27     4    1
    27     4     8    1
    28     4     5    1
    29    28     8   am
    30    28     9    1
    31     8    31    2
    32     9    10    1
    33     6     5    1
    34     6     1    1
    35    10    19    1
