@<TRIPOS>MOLECULE
/home/pku/3cl/gett_pdb/5SP4/5SP4_mol2/ligand/5SP4_RWL.pdb
 26 28 0 0 0
SMALL
GASTEIGER

@<TRIPOS>ATOM
      1  C17      -45.7400  -29.4120    3.7870 C.ar  201  RWL201      0.2307
      2  C14      -44.6680  -26.3810   -0.4020 C.ar  201  RWL201      0.1674
      3  C12      -43.1170  -27.5710    0.8880 C.ar  201  RWL201      0.0016
      4  C11      -44.3860  -28.2160    0.8650 C.ar  201  RWL201      0.0699
      5  C10      -44.7710  -29.5160    1.5300 C.3   201  RWL201      0.0698
      6  C02      -44.8100  -29.6040    5.8750 C.cat 201  RWL201      0.4052
      7  C04      -47.0990  -29.3130    5.7300 C.3   201  RWL201      0.2799
      8  C06      -46.9980  -29.2710    4.3180 C.ar  201  RWL201      0.1635
      9  C08      -47.1960  -29.1940    2.1620 C.ar  201  RWL201      0.0993
     10  N01      -43.6730  -29.8040    6.7270 N.pl3 201  RWL201     -0.2488
     11  N03      -45.9980  -29.4890    6.4420 N.2   201  RWL201     -0.0788
     12  N05      -48.3640  -29.1420    6.4050 N.3   201  RWL201     -0.2837
     13  N07      -47.8870  -29.1300    3.3030 N.ar  201  RWL201     -0.2316
     14  N09      -45.8830  -29.3500    2.4510 N.ar  201  RWL201     -0.2974
     15  N16      -45.3270  -27.4790    0.0700 N.ar  201  RWL201     -0.2308
     16  N18      -44.6390  -29.5670    4.5750 N.pl3 201  RWL201     -0.0208
     17  S13      -43.1060  -26.1870    0.0270 S.2   201  RWL201     -0.0639
     18 CL15      -45.5240  -25.3210   -1.4320 Cl    201  RWL201     -0.0543
     19 H121      -42.2530  -27.9150    1.4490 H     201  RWL201      0.0713
     20 H102      -43.9000  -29.9050    2.0730 H     201  RWL201      0.0558
     21 H101      -45.0210  -30.2650    0.7660 H     201  RWL201      0.0558
     22 H081      -47.5970  -29.0890    1.1650 H     201  RWL201      0.1030
     23 H012      -43.0890  -29.0410    7.0140 H     201  RWL201      0.2413
     24 H011      -43.3890  -30.7520    7.0260 H     201  RWL201      0.2413
     25 H052      -48.9400  -29.9150    6.6040 H     201  RWL201      0.1223
     26 H051      -48.6820  -28.1980    6.6520 H     201  RWL201      0.1223
@<TRIPOS>BOND
     1    18     2    1
     2     2    17   ar
     3     2    15   ar
     4    17     3   ar
     5    15     4   ar
     6    21     5    1
     7     4     3   ar
     8     4     5    1
     9     3    19    1
    10    22     9    1
    11     5    20    1
    12     5    14    1
    13     9    14   ar
    14     9    13   ar
    15    14     1   ar
    16    13     8   ar
    17     1     8   ar
    18     1    16    1
    19     8     7    1
    20    16     6    1
    21     7    12    1
    22     7    11    1
    23     6    11    2
    24     6    10    1
    25    12    25    1
    26    12    26    1
    27    10    23    1
    28    10    24    1
