@<TRIPOS>MOLECULE
/home/pku/3cl/gett_pdb/7MAV/7MAV_mol2/ligand/7MAV_YVY.pdb
 78 79 0 0 0
SMALL
GASTEIGER

@<TRIPOS>ATOM
      1  C10       27.5410   -5.7190   27.0790 C.3   401  YVY401      0.1080
      2  C01       25.9080   -8.8340   28.6330 C.2   401  YVY401      0.2158
      3  C05       25.1760   -7.6020   29.1400 C.3   401  YVY401      0.0474
      4  C08       26.1230   -6.4400   28.8150 C.3   401  YVY401      0.0571
      5  C11       28.2930   -4.7340   27.9780 C.1   401  YVY401     -0.0773
      6  C12       28.8740   -3.9620   28.6670 C.1   401  YVY401     -0.1169
      7  O03       26.8160   -9.2400   29.2860 O.2   401  YVY401     -0.2757
      8  O09       27.0810   -6.8030   27.8420 O.3   401  YVY401     -0.3669
      9  N02       25.5320   -9.4910   27.3870 N.am  401  YVY401     -0.3036
     10  C04       26.3490  -10.6250   27.0510 C.3   401  YVY401      0.1033
     11  C06       25.6640  -11.9960   27.2040 C.2   401  YVY401      0.2343
     12  O14       24.5000  -12.0820   26.9540 O.2   401  YVY401     -0.2738
     13  C07       26.6960  -10.7330   25.5470 C.3   401  YVY401     -0.0007
     14  C40       27.4840   -9.5730   24.9490 C.ar  401  YVY401     -0.0451
     15  C39       26.8720   -8.6750   24.0880 C.ar  401  YVY401     -0.0585
     16  C41       28.8160   -9.4070   25.2780 C.ar  401  YVY401     -0.0585
     17  C38       27.5890   -7.6060   23.5720 C.ar  401  YVY401     -0.0615
     18  C42       29.5360   -8.3430   24.7550 C.ar  401  YVY401     -0.0615
     19  C37       28.9240   -7.4440   23.9030 C.ar  401  YVY401     -0.0617
     20  N13       26.4420  -13.1880   27.5680 N.am  401  YVY401     -0.3022
     21  C15       25.8400  -14.5240   27.6150 C.3   401  YVY401      0.1034
     22  C16       25.7500  -15.1720   28.9860 C.2   401  YVY401      0.2342
     23  O19       26.0680  -14.4590   29.8590 O.2   401  YVY401     -0.2738
     24  C17       26.5980  -15.4020   26.5940 C.3   401  YVY401     -0.0007
     25  C24       26.6740  -14.7690   25.1820 C.ar  401  YVY401     -0.0451
     26  C23       25.5650  -14.7620   24.3600 C.ar  401  YVY401     -0.0585
     27  C25       27.8380  -14.1830   24.7370 C.ar  401  YVY401     -0.0585
     28  C22       25.6180  -14.1880   23.0900 C.ar  401  YVY401     -0.0615
     29  C26       27.9020  -13.6060   23.4690 C.ar  401  YVY401     -0.0615
     30  C21       26.7890  -13.6080   22.6430 C.ar  401  YVY401     -0.0617
     31  C20       24.9970  -17.2780   30.3890 C.3   401  YVY401      0.0822
     32  C28       26.3010  -17.2180   31.1610 C.3   401  YVY401     -0.0262
     33  C27       23.6620  -16.7220   30.9660 C.2   401  YVY401      0.1624
     34  C29       22.7780  -15.7790   30.1380 C.3   401  YVY401      0.0736
     35  C31       27.1100  -18.3920   30.5810 C.3   401  YVY401     -0.0353
     36  C32       28.3620  -18.5400   31.4380 C.3   401  YVY401      0.0131
     37  C34       29.0680  -19.9010   33.4240 C.2   401  YVY401      0.2971
     38  N18       25.2290  -16.5580   29.1160 N.am  401  YVY401     -0.3041
     39  N33       28.0130  -19.3480   32.5960 N.am  401  YVY401     -0.2996
     40  N35       30.4790  -19.6600   33.1180 N.am  401  YVY401     -0.3134
     41  O30       23.2370  -17.0900   32.0010 O.2   401  YVY401     -0.2947
     42  O36       28.7820  -20.5840   34.3360 O.2   401  YVY401     -0.2531
     43 H102       26.8100   -5.2840   26.6820 H     401  YVY401      0.0697
     44 H101       28.1200   -6.0330   26.4090 H     401  YVY401      0.0697
     45 H051       25.0260   -7.6610   30.0650 H     401  YVY401      0.0381
     46 H052       24.3550   -7.4970   28.6960 H     401  YVY401      0.0381
     47 H082       25.6180   -5.7180   28.4900 H     401  YVY401      0.0565
     48 H081       26.5680   -6.1820   29.6000 H     401  YVY401      0.0565
     49 H121       29.3160   -3.3640   29.1950 H     401  YVY401      0.1229
     50 H021       24.8730   -9.2210   26.8920 H     401  YVY401      0.1495
     51 H041       27.0690  -10.4700   27.6340 H     401  YVY401      0.0598
     52 H071       25.8890  -10.8050   25.0720 H     401  YVY401      0.0336
     53 H072       27.2020  -11.5150   25.4250 H     401  YVY401      0.0336
     54 H391       25.9790   -8.7890   23.8560 H     401  YVY401      0.0620
     55 H411       29.2300  -10.0090   25.8500 H     401  YVY401      0.0620
     56 H381       27.1750   -6.9990   23.0040 H     401  YVY401      0.0618
     57 H421       30.4320   -8.2350   24.9780 H     401  YVY401      0.0618
     58 H371       29.4060   -6.7320   23.5530 H     401  YVY401      0.0618
     59 H131       27.2840  -13.0980   27.7600 H     401  YVY401      0.1495
     60 H151       24.9330  -14.4340   27.3890 H     401  YVY401      0.0598
     61 H171       26.1580  -16.2290   26.5280 H     401  YVY401      0.0336
     62 H172       27.4730  -15.5370   26.9080 H     401  YVY401      0.0336
     63 H231       24.7730  -15.1460   24.6560 H     401  YVY401      0.0620
     64 H251       28.5880  -14.1730   25.2860 H     401  YVY401      0.0620
     65 H221       24.8660  -14.1950   22.5460 H     401  YVY401      0.0618
     66 H261       28.6940  -13.2190   23.1770 H     401  YVY401      0.0618
     67 H211       26.8300  -13.2230   21.7980 H     401  YVY401      0.0618
     68 H201       24.8300  -18.2010   30.3680 H     401  YVY401      0.0577
     69 H281       26.1530  -17.3340   32.0810 H     401  YVY401      0.0288
     70 H282       26.7420  -16.4020   31.0150 H     401  YVY401      0.0288
     71 H311       27.3480  -18.2110   29.6910 H     401  YVY401      0.0281
     72 H312       26.6020  -19.1810   30.6140 H     401  YVY401      0.0281
     73 H322       28.6610  -17.6950   31.7150 H     401  YVY401      0.0462
     74 H321       29.0380  -18.9650   30.9440 H     401  YVY401      0.0462
     75 H181       25.0440  -16.9820   28.3820 H     401  YVY401      0.1494
     76 H331       27.1810  -19.4970   32.7910 H     401  YVY401      0.1502
     77 H352       30.7110  -19.1710   32.4380 H     401  YVY401      0.1465
     78 H351       31.0880  -20.0070   33.6310 H     401  YVY401      0.1465
@<TRIPOS>BOND
     1    67    30    1
     2    65    28    1
     3    30    28   ar
     4    30    29   ar
     5    56    17    1
     6    28    26   ar
     7    66    29    1
     8    29    27   ar
     9    58    19    1
    10    17    19   ar
    11    17    15   ar
    12    54    15    1
    13    19    18   ar
    14    15    14   ar
    15    26    63    1
    16    26    25   ar
    17    27    25   ar
    18    27    64    1
    19    18    57    1
    20    18    16   ar
    21    14    16   ar
    22    14    13    1
    23    52    13    1
    24    25    24    1
    25    16    55    1
    26    53    13    1
    27    13    10    1
    28    44     1    1
    29    61    24    1
    30    24    62    1
    31    24    21    1
    32    43     1    1
    33    50     9    1
    34    12    11    2
    35    10    11    1
    36    10     9    1
    37    10    51    1
    38     1     8    1
    39     1     5    1
    40    11    20   am
    41     9     2   am
    42    60    21    1
    43    20    21    1
    44    20    59    1
    45    21    22    1
    46     8     4    1
    47     5     6    3
    48    75    38    1
    49    47     4    1
    50     2     3    1
    51     2     7    2
    52     6    49    1
    53    46     3    1
    54     4     3    1
    55     4    48    1
    56    22    38   am
    57    22    23    2
    58    38    31    1
    59     3    45    1
    60    71    35    1
    61    34    33    1
    62    68    31    1
    63    31    33    1
    64    31    32    1
    65    35    72    1
    66    35    32    1
    67    35    36    1
    68    74    36    1
    69    33    41    2
    70    70    32    1
    71    32    69    1
    72    36    73    1
    73    36    39    1
    74    77    40    1
    75    39    76    1
    76    39    37   am
    77    40    37   am
    78    40    78    1
    79    37    42    2
