W8D
  -OEChem-02242320043D

 29 31  0     1  0  0  0  0  0999 V2000
   -2.1370   -0.4910   -0.1090 C   0  0  1  0  0  0  0  0  0  0  0  0
   -4.5060    0.0790   -0.0450 C   0  0  0  0  0  0  0  0  0  0  0  0
    0.3320    1.4070    0.7570 C   0  0  0  0  0  0  0  0  0  0  0  0
    2.4910    1.1940   -0.0450 C   0  0  0  0  0  0  0  0  0  0  0  0
    2.3290   -0.1980   -0.1440 C   0  0  0  0  0  0  0  0  0  0  0  0
    2.4090   -2.3340   -0.4120 C   0  0  0  0  0  0  0  0  0  0  0  0
    1.0900   -0.7590    0.2400 C   0  0  0  0  0  0  0  0  0  0  0  0
   -1.1980   -0.4550    1.0980 C   0  0  0  0  0  0  0  0  0  0  0  0
   -3.7050    0.8980   -1.0950 C   0  0  0  0  0  0  0  0  0  0  0  0
   -3.5090   -1.0520    0.3110 C   0  0  0  0  0  0  0  0  0  0  0  0
    3.6760    1.7830   -0.4060 N   0  0  0  0  0  0  0  0  0  0  0  0
    3.1030   -1.2230   -0.5380 N   0  0  0  0  0  0  0  0  0  0  0  0
    1.1950   -2.0660    0.0550 N   0  0  0  0  0  0  0  0  0  0  0  0
    0.1010    0.0860    0.6910 N   0  0  0  0  0  0  0  0  0  0  0  0
    1.4750    1.9370    0.4050 N   0  0  0  0  0  0  0  0  0  0  0  0
   -2.3490    0.8420   -0.6040 O   0  0  0  0  0  0  0  0  0  0  0  0
   -1.7070   -1.1130   -0.8950 H   0  0  0  0  0  0  0  0  0  0  0  0
   -4.7330    0.6860    0.8310 H   0  0  0  0  0  0  0  0  0  0  0  0
   -5.4180   -0.3280   -0.4820 H   0  0  0  0  0  0  0  0  0  0  0  0
   -0.4560    2.0560    1.1090 H   0  0  0  0  0  0  0  0  0  0  0  0
    2.7740   -3.3210   -0.6550 H   0  0  0  0  0  0  0  0  0  0  0  0
   -1.6280    0.1780    1.8740 H   0  0  0  0  0  0  0  0  0  0  0  0
   -1.0660   -1.4650    1.4860 H   0  0  0  0  0  0  0  0  0  0  0  0
   -3.7750    0.4340   -2.0790 H   0  0  0  0  0  0  0  0  0  0  0  0
   -4.0600    1.9280   -1.1300 H   0  0  0  0  0  0  0  0  0  0  0  0
   -3.7410   -1.9560   -0.2530 H   0  0  0  0  0  0  0  0  0  0  0  0
   -3.5270   -1.2530    1.3820 H   0  0  0  0  0  0  0  0  0  0  0  0
    4.4090    1.2380   -0.7320 H   0  0  0  0  0  0  0  0  0  0  0  0
    3.7810    2.7450   -0.3360 H   0  0  0  0  0  0  0  0  0  0  0  0
  2  9  1  0  0  0  0
  2 10  1  0  0  0  0
  9 16  1  0  0  0  0
  1 10  1  0  0  0  0
  1 16  1  0  0  0  0
  1  8  1  0  0  0  0
  8 14  1  0  0  0  0
  3 14  1  0  0  0  0
  3 15  2  0  0  0  0
  7 14  1  0  0  0  0
  4 15  1  0  0  0  0
  7 13  2  0  0  0  0
  5  7  1  0  0  0  0
  6 13  1  0  0  0  0
  4  5  2  0  0  0  0
  4 11  1  0  0  0  0
  5 12  1  0  0  0  0
  6 12  2  0  0  0  0
  1 17  1  0  0  0  0
  2 18  1  0  0  0  0
  2 19  1  0  0  0  0
  3 20  1  0  0  0  0
  6 21  1  0  0  0  0
  8 22  1  0  0  0  0
  8 23  1  0  0  0  0
  9 24  1  0  0  0  0
  9 25  1  0  0  0  0
 10 26  1  0  0  0  0
 10 27  1  0  0  0  0
 11 28  1  0  0  0  0
 11 29  1  0  0  0  0
M  END
> <OPENEYE_ISO_SMILES>
c1nc-2c(ncn(c2n1)C[C@H]3CCCO3)N

> <OPENEYE_INCHI>
InChI=1S/C10H13N5O/c11-9-8-10(13-5-12-8)15(6-14-9)4-7-2-1-3-16-7/h5-7H,1-4,11H2/t7-/m1/s1

> <OPENEYE_INCHIKEY>
GVRQWFFFCDLKPP-SSDOTTSWSA-N

> <FORMULA>
C10H13N5O

$$$$
