@<TRIPOS>MOLECULE
/home/pku/3cl/gett_pdb/5RSK/5RSK_mol2/ligand/5RSK_W57.pdb
 28 30 0 0 0
SMALL
GASTEIGER

@<TRIPOS>ATOM
      1  C10      -44.8990  -30.6480    1.8780 C.ar  201  W57201      0.1583
      2  C17      -47.2540  -28.9250    3.2600 C.3   201  W57201      0.2728
      3  C02      -47.6240  -28.9060    5.4560 C.2   201  W57201      0.3349
      4  C03      -46.2640  -29.0790    5.6910 C.ar  201  W57201      0.1951
      5  C05      -44.3060  -29.4360    6.3470 C.ar  201  W57201      0.1192
      6  C07      -45.4770  -29.1910    4.6240 C.ar  201  W57201      0.1603
      7  C09      -45.1690  -29.1970    2.2040 C.3   201  W57201      0.0784
      8  C11      -45.4260  -31.4280    0.9280 C.ar  201  W57201      0.0452
      9  C12      -44.9190  -32.7080    1.0860 C.ar  201  W57201      0.2546
     10  C14      -46.1250  -33.8310   -0.5770 C.3   201  W57201      0.0805
     11  N01      -48.5200  -28.7110    6.5600 N.pl3 201  W57201     -0.2451
     12  N04      -45.4870  -29.1480    6.8150 N.ar  201  W57201     -0.2247
     13  N06      -44.2650  -29.4410    5.0120 N.ar  201  W57201     -0.2182
     14  N08      -45.9630  -29.0960    3.4030 N.pl3 201  W57201     -0.2592
     15  N15      -44.1280  -32.6350    2.1290 N.ar  201  W57201     -0.0399
     16  N18      -48.0940  -28.7620    4.2720 N.2   201  W57201     -0.0513
     17  O13      -45.1130  -33.8760    0.3440 O.3   201  W57201     -0.4777
     18  O16      -44.2720  -31.4530    2.5990 O.2   201  W57201     -0.3545
     19 H171      -47.5900  -28.8380    2.3970 H     201  W57201      0.1115
     20 H051      -43.5520  -29.5330    6.8830 H     201  W57201      0.1048
     21 H091      -45.6460  -28.7850    1.4670 H     201  W57201      0.0547
     22 H092      -44.3260  -28.7360    2.3390 H     201  W57201      0.0547
     23 H111      -45.9910  -31.1470    0.2450 H     201  W57201      0.0707
     24 H141      -46.2890  -34.7240   -0.9190 H     201  W57201      0.0660
     25 H142      -45.8720  -33.2460   -1.3080 H     201  W57201      0.0660
     26 H143      -46.9320  -33.4950   -0.1570 H     201  W57201      0.0660
     27 H011      -49.2830  -29.1090    6.5700 H     201  W57201      0.2885
     28 H012      -48.2940  -28.1970    7.2110 H     201  W57201      0.2885
@<TRIPOS>BOND
     1    25    10    1
     2    24    10    1
     3    10    26    1
     4    10    17    1
     5    23     8    1
     6    17     9    1
     7     8     9   ar
     8     8     1   ar
     9     9    15   ar
    10    21     7    1
    11     1     7    1
    12     1    18   ar
    13    15    18   ar
    14     7    22    1
    15     7    14    1
    16    19     2    1
    17     2    14    1
    18     2    16    1
    19    14     6    1
    20    16     3    2
    21     6    13   ar
    22     6     4   ar
    23    13     5   ar
    24     3     4    1
    25     3    11    1
    26     4    12   ar
    27     5    12   ar
    28     5    20    1
    29    11    27    1
    30    11    28    1
