@<TRIPOS>MOLECULE
/home/pku/3cl/gett_pdb/5SPP/5SPP_mol2/ligand/5SPP_S5U.pdb
 32 33 0 0 0
SMALL
GASTEIGER

@<TRIPOS>ATOM
      1  C18      -47.8130  -28.8830    4.3280 C.ar  201  S5U201     -0.0364
      2  C17      -48.5840  -28.9310    5.4820 C.ar  201  S5U201      0.0037
      3  C15      -46.5140  -29.1560    6.1100 C.ar  201  S5U201      0.1278
      4  C13      -44.2150  -29.3390    6.1350 C.2   201  S5U201      0.1038
      5  C11      -45.2310  -29.0750    4.0860 C.3   201  S5U201      0.2041
      6  C19      -46.4780  -29.0290    4.7370 C.ar  201  S5U201      0.0331
      7  C01      -46.0540  -31.1890    2.0280 C.3   201  S5U201      0.0032
      8  C03      -45.3240  -29.6700    0.1850 C.3   201  S5U201      0.0148
      9  C04      -46.7170  -29.5860   -0.4480 C.3   201  S5U201     -0.0313
     10  C05      -47.4390  -28.3280    0.0020 C.3   201  S5U201     -0.0026
     11  C06      -46.6570  -27.0680   -0.3750 C.2   201  S5U201      0.0871
     12  C09      -45.1000  -28.9110    2.5700 C.2   201  S5U201      0.2509
     13  N02      -45.4910  -29.9230    1.6050 N.am  201  S5U201     -0.3022
     14  N12      -44.1350  -29.2160    4.8200 N.2   201  S5U201     -0.2505
     15  N14      -45.3640  -29.3110    6.7700 N.pl3 201  S5U201     -0.1860
     16  N16      -47.7860  -29.0940    6.5150 N.ar  201  S5U201     -0.3479
     17  O07      -46.5750  -26.0990    0.4210 O.co2 201  S5U201     -0.3090
     18  O08      -46.0840  -27.0130   -1.4940 O.co2 201  S5U201     -0.8476
     19  O10      -44.6460  -27.8910    2.1710 O.2   201  S5U201     -0.2725
     20 H181      -48.1710  -28.7690    3.3200 H     201  S5U201      0.0637
     21 H171      -49.6590  -28.8590    5.5220 H     201  S5U201      0.0807
     22 H131      -43.3170  -29.4660    6.7160 H     201  S5U201      0.1015
     23 H013      -46.2840  -31.7990    1.1570 H     201  S5U201      0.0428
     24 H012      -46.9630  -31.0060    2.5920 H     201  S5U201      0.0428
     25 H011      -45.3370  -31.7090    2.6450 H     201  S5U201      0.0428
     26 H032      -44.7460  -28.7600    0.0300 H     201  S5U201      0.0464
     27 H031      -44.7840  -30.5020   -0.2400 H     201  S5U201      0.0464
     28 H042      -46.6980  -29.5960   -1.5320 H     201  S5U201      0.0284
     29 H041      -47.2780  -30.4530   -0.1490 H     201  S5U201      0.0284
     30 H052      -47.5770  -28.3830    1.0770 H     201  S5U201      0.0333
     31 H051      -48.4040  -28.3090   -0.4850 H     201  S5U201      0.0333
     32 H161      -48.0940  -29.1630    7.4640 H     201  S5U201      0.1666
@<TRIPOS>UNITY_ATOM_ATTR
18 1
charge -1
@<TRIPOS>BOND
     1    28     9    1
     2    18    11   ar
     3    31    10    1
     4     9    29    1
     5     9    10    1
     6     9     8    1
     7    11    10    1
     8    11    17   ar
     9    27     8    1
    10    10    30    1
    11    26     8    1
    12     8    13    1
    13    23     7    1
    14    13     7    1
    15    13    12   am
    16     7    24    1
    17     7    25    1
    18    19    12    2
    19    12     5    1
    20    20     1    1
    21     5     6    1
    22     5    14    1
    23     1     6   ar
    24     1     2   ar
    25     6     3   ar
    26    14     4    2
    27     2    21    1
    28     2    16   ar
    29     3    16   ar
    30     3    15    1
    31     4    22    1
    32     4    15    1
    33    16    32    1
