@<TRIPOS>MOLECULE
/home/pku/3cl/gett_pdb/5RTO/5RTO_mol2/ligand/5RTO_4PN.pdb
 32 33 0 0 0
SMALL
GASTEIGER

@<TRIPOS>ATOM
      1  C8       -38.6840    1.9320    1.3750 C.3   201  4PN201     -0.0008
      2  C9       -39.2940    2.2720    2.7460 C.3   201  4PN201     -0.0402
      3  C10      -40.7220    2.1120    2.7970 C.3   201  4PN201     -0.0507
      4  C11      -41.3960    2.6770    1.6610 C.3   201  4PN201     -0.0402
      5  C12      -40.8560    2.1080    0.3470 C.3   201  4PN201     -0.0008
      6  N7       -39.4420    2.3010    0.2060 N.3   201  4PN201     -0.2993
      7  C4       -38.9520    1.8800   -0.8430 C.3   201  4PN201      0.0127
      8  C5       -38.6810    3.1780   -1.5010 C.3   201  4PN201     -0.0247
      9  C6       -38.1030    3.0290   -2.9060 C.3   201  4PN201     -0.0027
     10  N1       -38.7720    1.9930   -3.7270 N.3   201  4PN201     -0.3159
     11  C2       -38.9610    0.6990   -3.0450 C.3   201  4PN201     -0.0027
     12  C3       -39.7030    0.9470   -1.7250 C.3   201  4PN201     -0.0247
     13  H81      -38.5440    0.9720    1.3550 H     201  4PN201      0.0427
     14  H82      -37.8220    2.3700    1.3190 H     201  4PN201      0.0427
     15  H91      -38.8950    1.6930    3.4140 H     201  4PN201      0.0278
     16  H92      -39.0790    3.1940    2.9590 H     201  4PN201      0.0278
     17 H101      -40.9260    1.1650    2.8390 H     201  4PN201      0.0266
     18 H102      -41.0540    2.5430    3.6000 H     201  4PN201      0.0266
     19 H111      -42.3430    2.4780    1.7250 H     201  4PN201      0.0278
     20 H112      -41.2680    3.6390    1.6640 H     201  4PN201      0.0278
     21 H121      -41.3160    2.5510   -0.3830 H     201  4PN201      0.0427
     22 H122      -41.0630    1.1600    0.3400 H     201  4PN201      0.0427
     23  H4       -38.0950    1.4680   -0.6530 H     201  4PN201      0.0463
     24  H51      -38.0500    3.6760   -0.9570 H     201  4PN201      0.0293
     25  H52      -39.5110    3.6770   -1.5590 H     201  4PN201      0.0293
     26  H61      -37.1670    2.7970   -2.8120 H     201  4PN201      0.0424
     27  H62      -38.1730    3.8820   -3.3630 H     201  4PN201      0.0424
     28  H1       -39.5590    2.2990   -4.0090 H     201  4PN201      0.1219
     29  H21      -38.0970    0.2990   -2.8620 H     201  4PN201      0.0424
     30  H22      -39.4870    0.1090   -3.6070 H     201  4PN201      0.0424
     31  H31      -39.8260    0.1010   -1.2660 H     201  4PN201      0.0293
     32  H32      -40.5670    1.3180   -1.9610 H     201  4PN201      0.0293
@<TRIPOS>BOND
     1    28    10    1
     2    10    11    1
     3    10     9    1
     4    30    11    1
     5    27     9    1
     6    11    29    1
     7    11    12    1
     8     9    26    1
     9     9     8    1
    10    32    12    1
    11    12    31    1
    12    12     7    1
    13    25     8    1
    14     8    24    1
    15     8     7    1
    16     7    23    1
    17     7     6    1
    18    21     5    1
    19     6     5    1
    20     6     1    1
    21    22     5    1
    22     5     4    1
    23    14     1    1
    24    13     1    1
    25     1     2    1
    26     4    20    1
    27     4    19    1
    28     4     3    1
    29     2     3    1
    30     2    16    1
    31     2    15    1
    32     3    17    1
    33     3    18    1
