@<TRIPOS>MOLECULE
/home/pku/3cl/gett_pdb/4XBB/4XBB_mol2/ligand/4XBB_3ZR.pdb
 33 35 0 0 0
SMALL
GASTEIGER

@<TRIPOS>ATOM
      1  C13       39.4810   38.7400   12.5590 C.3   201  3ZR201      0.1761
      2  C14       40.2100   39.8590   11.8260 C.3   201  3ZR201      0.0312
      3  C15       39.5370   41.2290   12.0040 C.3   201  3ZR201      0.0022
      4  C16       38.1130   41.2620   11.4440 C.3   201  3ZR201      0.0001
      5  C17       37.5130   42.6660   11.5240 C.3   201  3ZR201      0.0000
      6  C18       38.4040   43.7050   10.8770 C.3   201  3ZR201      0.0000
      7  C19       39.8210   43.6560   11.4330 C.3   201  3ZR201      0.0000
      8  C20       40.3960   42.2600   11.2800 C.3   201  3ZR201      0.0001
      9  C21       40.1100   37.4160   12.2220 C.2   201  3ZR201      0.2614
     10  C24       38.7930   34.2750   11.4630 C.3   201  3ZR201      0.0554
     11  C25       38.9770   33.7850   12.8840 C.2   201  3ZR201      0.0363
     12  C27       39.6960   33.1580   14.9040 C.2   201  3ZR201      0.0888
     13  C29       38.0410   32.9190   13.4540 C.2   201  3ZR201      0.2651
     14  C31       39.9840   35.2230    9.3910 C.3   201  3ZR201      0.2039
     15  O01       38.2420   37.1270   14.6000 O.2   201  3ZR201     -0.2245
     16  C02       38.9120   38.1290   14.8530 C.2   201  3ZR201      0.4218
     17  O03       39.1560   38.5220   16.2250 O.3   201  3ZR201     -0.4285
     18  C04       38.5500   37.9000   17.3680 C.3   201  3ZR201      0.2368
     19  C05       37.2400   38.5780   17.7560 C.ar  201  3ZR201      0.0222
     20  C06       37.1970   39.4400   18.6830 C.ar  201  3ZR201     -0.0006
     21  C07       36.1180   40.0320   19.0060 C.ar  201  3ZR201      0.0007
     22  C08       34.9970   39.7150   18.5140 C.ar  201  3ZR201      0.0114
     23  C09       34.9500   38.8070   17.5300 C.ar  201  3ZR201      0.0575
     24 CL         33.4260   38.3110   16.7820 Cl    201  3ZR201     -0.0823
     25  C11       36.1020   38.2490   17.1250 C.ar  201  3ZR201      0.0107
     26  N12       39.4950   38.9450   13.9790 N.am  201  3ZR201     -0.1611
     27  N22       39.4410   36.7390   11.3180 N.am  201  3ZR201     -0.2027
     28  C23       39.5570   35.4080   10.8290 C.3   201  3ZR201      0.1327
     29  C26       40.0370   33.9120   13.7750 C.2   201  3ZR201      0.0183
     30  N28       38.4870   32.5460   14.6780 N.am  201  3ZR201     -0.1744
     31  O30       36.9310   32.5430   12.8830 O.2   201  3ZR201     -0.2684
     32  O32       40.9640   36.1910    8.9850 O.3   201  3ZR201     -0.2185
     33  O41       41.1140   37.0100   12.7660 O.2   201  3ZR201     -0.2715
@<TRIPOS>BOND
     1    32    14    1
     2    14    28    1
     3    28    27    1
     4    28    10    1
     5     6     7    1
     6     6     5    1
     7     8     7    1
     8     8     3    1
     9    27     9   am
    10     4     5    1
    11     4     3    1
    12    10    11    1
    13     2     3    1
    14     2     1    1
    15     9     1    1
    16     9    33    2
    17     1    26    1
    18    31    13    2
    19    11    13    1
    20    11    29    2
    21    13    30    1
    22    29    12    1
    23    26    16   am
    24    15    16    2
    25    30    12    2
    26    16    17    1
    27    17    18    1
    28    24    23    1
    29    25    23   ar
    30    25    19   ar
    31    18    19    1
    32    23    22   ar
    33    19    20   ar
    34    22    21   ar
    35    20    21   ar
