5YN
  -OEChem-02242320013D

 38 40  0     0  0  0  0  0  0999 V2000
   -2.3760   -1.0210   -0.8910 C   0  0  0  0  0  0  0  0  0  0  0  0
    5.0860   -0.8100    1.8120 C   0  0  0  0  0  0  0  0  0  0  0  0
    3.3670    1.5440   -0.5050 C   0  0  0  0  0  0  0  0  0  0  0  0
    4.2870    0.4980    0.0030 C   0  0  0  0  0  0  0  0  0  0  0  0
   -0.1510    1.8980   -0.7840 C   0  0  0  0  0  0  0  0  0  0  0  0
    1.1990    2.2210   -1.4320 C   0  0  0  0  0  0  0  0  0  0  0  0
    0.4310   -0.4450   -0.5540 C   0  0  0  0  0  0  0  0  0  0  0  0
    1.8050   -0.2180   -1.1930 C   0  0  0  0  0  0  0  0  0  0  0  0
   -1.8270    0.2370   -0.6760 C   0  0  0  0  0  0  0  0  0  0  0  0
   -2.5700    1.2150   -0.0290 C   0  0  0  0  0  0  0  0  0  0  0  0
   -3.8540    0.9360    0.4010 C   0  0  0  0  0  0  0  0  0  0  0  0
   -4.4000   -0.3190    0.1860 C   0  0  0  0  0  0  0  0  0  0  0  0
    3.6900    2.7140   -0.4560 O   0  0  0  0  0  0  0  0  0  0  0  0
   -3.6610   -1.2960   -0.4590 C   0  0  0  0  0  0  0  0  0  0  0  0
    6.0650   -1.1310   -0.2870 C   0  0  0  0  0  0  0  0  0  0  0  0
    5.1650   -0.1100   -0.8370 C   0  0  0  0  0  0  0  0  0  0  0  0
    4.2600    0.1340    1.3320 N   0  0  0  0  0  0  0  0  0  0  0  0
    5.9760   -1.4380    1.0240 N   0  0  0  0  0  0  0  0  0  0  0  0
    2.1720    1.1970   -1.0230 N   0  0  0  0  0  0  0  0  0  0  0  0
   -0.5290    0.5170   -1.1110 N   0  0  0  0  0  0  0  0  0  0  0  0
    5.0300   -1.1020    2.9910 O   0  0  0  0  0  0  0  0  0  0  0  0
    6.8660   -1.7000   -1.0030 O   0  0  0  0  0  0  0  0  0  0  0  0
   -4.3480   -2.8680   -0.7270 Cl  0  0  0  0  0  0  0  0  0  0  0  0
   -6.0120   -0.6670    0.7270 Cl  0  0  0  0  0  0  0  0  0  0  0  0
   -4.7830    2.1580    1.2110 Cl  0  0  0  0  0  0  0  0  0  0  0  0
   -1.8020   -1.7820   -1.3980 H   0  0  0  0  0  0  0  0  0  0  0  0
   -0.0700    2.0060    0.2980 H   0  0  0  0  0  0  0  0  0  0  0  0
   -0.9100    2.5820   -1.1630 H   0  0  0  0  0  0  0  0  0  0  0  0
    1.0950    2.2150   -2.5170 H   0  0  0  0  0  0  0  0  0  0  0  0
    1.5380    3.2040   -1.1020 H   0  0  0  0  0  0  0  0  0  0  0  0
    0.0950   -1.4600   -0.7670 H   0  0  0  0  0  0  0  0  0  0  0  0
    0.5040   -0.3040    0.5240 H   0  0  0  0  0  0  0  0  0  0  0  0
    2.5460   -0.8490   -0.7030 H   0  0  0  0  0  0  0  0  0  0  0  0
    1.7610   -0.4620   -2.2550 H   0  0  0  0  0  0  0  0  0  0  0  0
   -2.1450    2.1940    0.1390 H   0  0  0  0  0  0  0  0  0  0  0  0
    5.2080    0.1610   -1.8810 H   0  0  0  0  0  0  0  0  0  0  0  0
    6.5590   -2.1160    1.4010 H   0  0  0  0  0  0  0  0  0  0  0  0
    3.6330    0.5680    1.9320 H   0  0  0  0  0  0  0  0  0  0  0  0
 15 22  2  0  0  0  0
 15 16  1  0  0  0  0
 15 18  1  0  0  0  0
  4 16  2  0  0  0  0
  2 18  1  0  0  0  0
  4 17  1  0  0  0  0
  3  4  1  0  0  0  0
  2 17  1  0  0  0  0
  2 21  2  0  0  0  0
 14 23  1  0  0  0  0
  3 13  2  0  0  0  0
  3 19  1  0  0  0  0
  5  6  1  0  0  0  0
  5 20  1  0  0  0  0
  1 14  2  0  0  0  0
  1  9  1  0  0  0  0
 12 14  1  0  0  0  0
  6 19  1  0  0  0  0
  8 19  1  0  0  0  0
  7 20  1  0  0  0  0
  7  8  1  0  0  0  0
  9 20  1  0  0  0  0
  9 10  2  0  0  0  0
 12 24  1  0  0  0  0
 11 12  2  0  0  0  0
 10 11  1  0  0  0  0
 11 25  1  0  0  0  0
  1 26  1  0  0  0  0
  5 27  1  0  0  0  0
  5 28  1  0  0  0  0
  6 29  1  0  0  0  0
  6 30  1  0  0  0  0
  7 31  1  0  0  0  0
  7 32  1  0  0  0  0
  8 33  1  0  0  0  0
  8 34  1  0  0  0  0
 10 35  1  0  0  0  0
 16 36  1  0  0  0  0
 18 37  1  0  0  0  0
 17 38  1  0  0  0  0
M  END
> <OPENEYE_ISO_SMILES>
c1c(cc(c(c1Cl)Cl)Cl)N2CCN(CC2)C(=O)c3cc(=O)[nH]c(=O)[nH]3

> <OPENEYE_INCHI>
InChI=1S/C15H13Cl3N4O3/c16-9-5-8(6-10(17)13(9)18)21-1-3-22(4-2-21)14(24)11-7-12(23)20-15(25)19-11/h5-7H,1-4H2,(H2,19,20,23,25)

> <OPENEYE_INCHIKEY>
BYGXXTSBJDGVES-UHFFFAOYSA-N

> <FORMULA>
C15H13Cl3N4O3

$$$$
