QW3
  -OEChem-02242320033D

 51 54  0     1  0  0  0  0  0999 V2000
    2.5690    2.0700    0.9180 C   0  0  0  0  0  0  0  0  0  0  0  0
    1.1910    2.1800    1.0010 C   0  0  0  0  0  0  0  0  0  0  0  0
    0.3950    1.0310    0.8800 C   0  0  0  0  0  0  0  0  0  0  0  0
   -1.0720    1.1360    0.9660 C   0  0  0  0  0  0  0  0  0  0  0  0
   -3.2930    0.1360    0.9350 C   0  0  1  0  0  0  0  0  0  0  0  0
   -3.8700    0.5530   -0.4010 C   0  0  0  0  0  0  0  0  0  0  0  0
   -3.9250    1.7990   -1.0050 C   0  0  0  0  0  0  0  0  0  0  0  0
    3.1520    0.8270    0.7100 C   0  0  0  0  0  0  0  0  0  0  0  0
   -2.9290   -2.1370    1.9390 C   0  0  0  0  0  0  0  0  0  0  0  0
   -3.9150   -1.2460    1.2290 C   0  0  2  0  0  0  0  0  0  0  0  0
   -4.2180   -1.7810   -0.1870 C   0  0  0  0  0  0  0  0  0  0  0  0
   -4.4010   -0.5480   -1.0460 C   0  0  0  0  0  0  0  0  0  0  0  0
   -4.9870   -0.4000   -2.2960 C   0  0  0  0  0  0  0  0  0  0  0  0
   -5.0400    0.8490   -2.8970 C   0  0  0  0  0  0  0  0  0  0  0  0
   -4.5080    1.9460   -2.2490 C   0  0  0  0  0  0  0  0  0  0  0  0
    5.0950   -0.1790   -0.2140 C   0  0  0  0  0  0  0  0  0  0  0  0
    7.0380   -1.2030   -1.2700 C   0  0  0  0  0  0  0  0  0  0  0  0
    8.1720   -0.7160   -2.1740 C   0  0  0  0  0  0  0  0  0  0  0  0
    8.4780   -1.6360   -0.9900 C   0  0  0  0  0  0  0  0  0  0  0  0
    2.3570   -0.3090    0.5840 C   0  0  0  0  0  0  0  0  0  0  0  0
    0.9980   -0.2140    0.6760 C   0  0  0  0  0  0  0  0  0  0  0  0
   -1.8350    0.0320    0.8490 N   0  0  0  0  0  0  0  0  0  0  0  0
    4.5400    0.7170    0.6260 N   0  0  0  0  0  0  0  0  0  0  0  0
    6.4340   -0.2300   -0.3570 N   0  0  0  0  0  0  0  0  0  0  0  0
   -2.1350   -2.7880    1.3010 O   0  0  0  0  0  0  0  0  0  0  0  0
   -5.5100   -1.4810   -2.9320 O   0  0  0  0  0  0  0  0  0  0  0  0
    0.6150    3.3920    1.1990 O   0  0  0  0  0  0  0  0  0  0  0  0
    4.3880   -0.9410   -0.8440 O   0  0  0  0  0  0  0  0  0  0  0  0
   -1.5950    2.2200    1.1430 O   0  0  0  0  0  0  0  0  0  0  0  0
   -2.9320   -2.2070    3.2790 O   0  0  0  0  0  0  0  0  0  0  0  0
    3.1880    2.9500    1.0100 H   0  0  0  0  0  0  0  0  0  0  0  0
   -3.5760    0.8500    1.7080 H   0  0  0  0  0  0  0  0  0  0  0  0
   -3.5090    2.6590   -0.5010 H   0  0  0  0  0  0  0  0  0  0  0  0
   -4.8310   -1.1430    1.8110 H   0  0  0  0  0  0  0  0  0  0  0  0
   -3.3810   -2.3760   -0.5530 H   0  0  0  0  0  0  0  0  0  0  0  0
   -5.1300   -2.3770   -0.1790 H   0  0  0  0  0  0  0  0  0  0  0  0
   -5.4960    0.9620   -3.8690 H   0  0  0  0  0  0  0  0  0  0  0  0
   -4.5490    2.9200   -2.7140 H   0  0  0  0  0  0  0  0  0  0  0  0
    6.3570   -1.9520   -1.6750 H   0  0  0  0  0  0  0  0  0  0  0  0
    8.2380   -1.1440   -3.1740 H   0  0  0  0  0  0  0  0  0  0  0  0
    8.4690    0.3290   -2.0890 H   0  0  0  0  0  0  0  0  0  0  0  0
    8.9770   -1.1960   -0.1270 H   0  0  0  0  0  0  0  0  0  0  0  0
    8.7460   -2.6690   -1.2120 H   0  0  0  0  0  0  0  0  0  0  0  0
    2.8180   -1.2720    0.4220 H   0  0  0  0  0  0  0  0  0  0  0  0
    0.3880   -1.1000    0.5820 H   0  0  0  0  0  0  0  0  0  0  0  0
   -1.4180   -0.8330    0.7080 H   0  0  0  0  0  0  0  0  0  0  0  0
    5.1060    1.2850    1.1720 H   0  0  0  0  0  0  0  0  0  0  0  0
    6.9990    0.3790    0.1460 H   0  0  0  0  0  0  0  0  0  0  0  0
   -6.4420   -1.6430   -2.7320 H   0  0  0  0  0  0  0  0  0  0  0  0
    0.4050    3.8660    0.3830 H   0  0  0  0  0  0  0  0  0  0  0  0
   -2.2800   -2.7930    3.6900 H   0  0  0  0  0  0  0  0  0  0  0  0
  9 25  2  0  0  0  0
 10 11  1  0  0  0  0
 11 12  1  0  0  0  0
 12 13  2  0  0  0  0
 13 26  1  0  0  0  0
 13 14  1  0  0  0  0
 14 15  2  0  0  0  0
  7 15  1  0  0  0  0
  6  7  2  0  0  0  0
  5  6  1  0  0  0  0
  5 22  1  0  0  0  0
  4 22  1  0  0  0  0
  2  3  2  0  0  0  0
  2 27  1  0  0  0  0
  1  2  1  0  0  0  0
  1  8  2  0  0  0  0
 16 23  1  0  0  0  0
 17 24  1  0  0  0  0
 17 18  1  0  0  0  0
 18 19  1  0  0  0  0
 16 24  1  0  0  0  0
 16 28  2  0  0  0  0
  8 23  1  0  0  0  0
  8 20  1  0  0  0  0
 20 21  2  0  0  0  0
  3  4  1  0  0  0  0
  4 29  2  0  0  0  0
  9 10  1  0  0  0  0
  9 30  1  0  0  0  0
  5 10  1  0  0  0  0
  6 12  1  0  0  0  0
  3 21  1  0  0  0  0
 17 19  1  0  0  0  0
  1 31  1  0  0  0  0
  5 32  1  0  0  0  0
  7 33  1  0  0  0  0
 10 34  1  0  0  0  0
 11 35  1  0  0  0  0
 11 36  1  0  0  0  0
 14 37  1  0  0  0  0
 15 38  1  0  0  0  0
 17 39  1  0  0  0  0
 18 40  1  0  0  0  0
 18 41  1  0  0  0  0
 19 42  1  0  0  0  0
 19 43  1  0  0  0  0
 20 44  1  0  0  0  0
 21 45  1  0  0  0  0
 22 46  1  0  0  0  0
 23 47  1  0  0  0  0
 24 48  1  0  0  0  0
 26 49  1  0  0  0  0
 27 50  1  0  0  0  0
 30 51  1  0  0  0  0
M  END
> <OPENEYE_ISO_SMILES>
c1cc2c(c(c1)O)C[C@H]([C@H]2NC(=O)c3ccc(cc3O)NC(=O)NC4CC4)C(=O)O

> <OPENEYE_INCHI>
InChI=1S/C21H21N3O6/c25-16-3-1-2-12-14(16)9-15(20(28)29)18(12)24-19(27)13-7-6-11(8-17(13)26)23-21(30)22-10-4-5-10/h1-3,6-8,10,15,18,25-26H,4-5,9H2,(H,24,27)(H,28,29)(H2,22,23,30)/t15-,18+/m1/s1

> <OPENEYE_INCHIKEY>
WXQXNCDNVPQRNY-QAPCUYQASA-N

> <FORMULA>
C21H21N3O6

$$$$
