QWC
  -OEChem-02242320033D

 51 54  0     1  0  0  0  0  0999 V2000
    2.8660   -1.9030    1.6380 C   0  0  0  0  0  0  0  0  0  0  0  0
    3.7410   -0.6810    1.7440 C   0  0  1  0  0  0  0  0  0  0  0  0
    5.0980   -0.9160    1.0460 C   0  0  0  0  0  0  0  0  0  0  0  0
    4.9040   -0.4250   -0.3730 C   0  0  0  0  0  0  0  0  0  0  0  0
    5.6500   -0.6680   -1.5190 C   0  0  0  0  0  0  0  0  0  0  0  0
    5.2740   -0.1000   -2.7270 C   0  0  0  0  0  0  0  0  0  0  0  0
    4.1540    0.7060   -2.7880 C   0  0  0  0  0  0  0  0  0  0  0  0
    3.4120    0.9460   -1.6480 C   0  0  0  0  0  0  0  0  0  0  0  0
    3.7850    0.3820   -0.4390 C   0  0  0  0  0  0  0  0  0  0  0  0
    3.1500    0.4900    0.9310 C   0  0  1  0  0  0  0  0  0  0  0  0
    0.9220    1.4510    0.6970 C   0  0  0  0  0  0  0  0  0  0  0  0
   -0.5400    1.3130    0.5950 C   0  0  0  0  0  0  0  0  0  0  0  0
   -1.3460    2.4530    0.4520 C   0  0  0  0  0  0  0  0  0  0  0  0
   -2.7200    2.3130    0.3560 C   0  0  0  0  0  0  0  0  0  0  0  0
   -3.2920    1.0480    0.4010 C   0  0  0  0  0  0  0  0  0  0  0  0
   -5.2020   -0.1750   -0.3030 C   0  0  0  0  0  0  0  0  0  0  0  0
   -7.1080   -1.5390   -0.9660 C   0  0  0  0  0  0  0  0  0  0  0  0
   -8.2190   -2.2920   -0.2310 C   0  0  0  0  0  0  0  0  0  0  0  0
   -8.5540   -1.4410   -1.4570 C   0  0  0  0  0  0  0  0  0  0  0  0
   -2.4870   -0.0800    0.5430 C   0  0  0  0  0  0  0  0  0  0  0  0
   -1.1310    0.0460    0.6330 C   0  0  0  0  0  0  0  0  0  0  0  0
    1.6950    0.3540    0.8290 N   0  0  0  0  0  0  0  0  0  0  0  0
   -4.6750    0.9070    0.3040 N   0  0  0  0  0  0  0  0  0  0  0  0
   -6.5360   -0.3630   -0.3060 N   0  0  0  0  0  0  0  0  0  0  0  0
    2.9890   -2.6550    0.7010 O   0  0  0  0  0  0  0  0  0  0  0  0
    6.7520   -1.4610   -1.4570 O   0  0  0  0  0  0  0  0  0  0  0  0
   -0.7820    3.6860    0.4100 O   0  0  0  0  0  0  0  0  0  0  0  0
   -4.4730   -0.9800   -0.8490 O   0  0  0  0  0  0  0  0  0  0  0  0
    1.4340    2.5540    0.6640 O   0  0  0  0  0  0  0  0  0  0  0  0
    1.9540   -2.1590    2.5890 O   0  0  0  0  0  0  0  0  0  0  0  0
    3.8830   -0.3960    2.7860 H   0  0  0  0  0  0  0  0  0  0  0  0
    5.8820   -0.3420    1.5410 H   0  0  0  0  0  0  0  0  0  0  0  0
    5.3470   -1.9770    1.0500 H   0  0  0  0  0  0  0  0  0  0  0  0
    5.8550   -0.2880   -3.6180 H   0  0  0  0  0  0  0  0  0  0  0  0
    3.8590    1.1500   -3.7280 H   0  0  0  0  0  0  0  0  0  0  0  0
    2.5370    1.5780   -1.6990 H   0  0  0  0  0  0  0  0  0  0  0  0
    3.4090    1.4420    1.3940 H   0  0  0  0  0  0  0  0  0  0  0  0
   -3.3470    3.1860    0.2470 H   0  0  0  0  0  0  0  0  0  0  0  0
   -6.4120   -2.1280   -1.5640 H   0  0  0  0  0  0  0  0  0  0  0  0
   -8.2550   -3.3750   -0.3450 H   0  0  0  0  0  0  0  0  0  0  0  0
   -8.5240   -1.9120    0.7440 H   0  0  0  0  0  0  0  0  0  0  0  0
   -9.0790   -0.5000   -1.2890 H   0  0  0  0  0  0  0  0  0  0  0  0
   -8.8090   -1.9640   -2.3790 H   0  0  0  0  0  0  0  0  0  0  0  0
   -2.9390   -1.0610    0.5780 H   0  0  0  0  0  0  0  0  0  0  0  0
   -0.5130   -0.8340    0.7380 H   0  0  0  0  0  0  0  0  0  0  0  0
    1.2870   -0.5260    0.8550 H   0  0  0  0  0  0  0  0  0  0  0  0
   -5.2590    1.5880    0.6740 H   0  0  0  0  0  0  0  0  0  0  0  0
   -7.1180    0.2790    0.1300 H   0  0  0  0  0  0  0  0  0  0  0  0
    6.5710   -2.3980   -1.6150 H   0  0  0  0  0  0  0  0  0  0  0  0
   -0.5500    3.9820   -0.4810 H   0  0  0  0  0  0  0  0  0  0  0  0
    1.4180   -2.9570    2.4800 H   0  0  0  0  0  0  0  0  0  0  0  0
  1 25  2  0  0  0  0
  2  3  1  0  0  0  0
  3  4  1  0  0  0  0
  4  5  2  0  0  0  0
  5 26  1  0  0  0  0
  5  6  1  0  0  0  0
  6  7  2  0  0  0  0
  7  8  1  0  0  0  0
  8  9  2  0  0  0  0
  9 10  1  0  0  0  0
 10 22  1  0  0  0  0
 11 22  1  0  0  0  0
 12 13  2  0  0  0  0
 13 27  1  0  0  0  0
 13 14  1  0  0  0  0
 14 15  2  0  0  0  0
 16 23  1  0  0  0  0
 17 24  1  0  0  0  0
 17 18  1  0  0  0  0
 18 19  1  0  0  0  0
 16 24  1  0  0  0  0
 16 28  2  0  0  0  0
 15 23  1  0  0  0  0
 15 20  1  0  0  0  0
 20 21  2  0  0  0  0
 11 12  1  0  0  0  0
 11 29  2  0  0  0  0
  1  2  1  0  0  0  0
  1 30  1  0  0  0  0
  2 10  1  0  0  0  0
  4  9  1  0  0  0  0
 12 21  1  0  0  0  0
 17 19  1  0  0  0  0
  2 31  1  0  0  0  0
  3 32  1  0  0  0  0
  3 33  1  0  0  0  0
  6 34  1  0  0  0  0
  7 35  1  0  0  0  0
  8 36  1  0  0  0  0
 10 37  1  0  0  0  0
 14 38  1  0  0  0  0
 17 39  1  0  0  0  0
 18 40  1  0  0  0  0
 18 41  1  0  0  0  0
 19 42  1  0  0  0  0
 19 43  1  0  0  0  0
 20 44  1  0  0  0  0
 21 45  1  0  0  0  0
 22 46  1  0  0  0  0
 23 47  1  0  0  0  0
 24 48  1  0  0  0  0
 26 49  1  0  0  0  0
 27 50  1  0  0  0  0
 30 51  1  0  0  0  0
M  END
> <OPENEYE_ISO_SMILES>
c1cc2c(c(c1)O)C[C@@H]([C@@H]2NC(=O)c3ccc(cc3O)NC(=O)NC4CC4)C(=O)O

> <OPENEYE_INCHI>
InChI=1S/C21H21N3O6/c25-16-3-1-2-12-14(16)9-15(20(28)29)18(12)24-19(27)13-7-6-11(8-17(13)26)23-21(30)22-10-4-5-10/h1-3,6-8,10,15,18,25-26H,4-5,9H2,(H,24,27)(H,28,29)(H2,22,23,30)/t15-,18+/m0/s1

> <OPENEYE_INCHIKEY>
WXQXNCDNVPQRNY-MAUKXSAKSA-N

> <FORMULA>
C21H21N3O6

$$$$
