V66
  -OEChem-02242320043D

 93 95  0     1  0  0  0  0  0999 V2000
   -4.3260   -1.4500    1.4680 O   0  0  0  0  0  0  0  0  0  0  0  0
   -4.0890   -1.4770    0.2760 C   0  0  0  0  0  0  0  0  0  0  0  0
   -5.0570   -1.8200   -0.5950 O   0  0  0  0  0  0  0  0  0  0  0  0
   -6.3580   -2.1460   -0.0400 C   0  0  0  0  0  0  0  0  0  0  0  0
   -6.9030   -0.9380    0.7250 C   0  0  0  0  0  0  0  0  0  0  0  0
   -7.3200   -2.5080   -1.1730 C   0  0  0  0  0  0  0  0  0  0  0  0
   -6.2230   -3.3350    0.9140 C   0  0  0  0  0  0  0  0  0  0  0  0
   -0.4010    0.1720   -0.8710 O   0  0  0  0  0  0  0  0  0  0  0  0
   -0.9730    0.3250    0.1870 C   0  0  0  0  0  0  0  0  0  0  0  0
    5.9330   -0.6400    0.2080 N   0  0  0  0  0  0  0  0  0  0  0  0
    6.4370   -1.7910   -0.5670 C   0  0  0  0  0  0  0  0  0  0  0  0
    5.9970   -3.0830    0.1250 C   0  0  0  0  0  0  0  0  0  0  0  0
    4.9220   -3.7730   -0.7170 C   0  0  0  0  0  0  0  0  0  0  0  0
    3.7490   -4.1160    0.1780 C   0  0  0  0  0  0  0  0  0  0  0  0
    3.0040   -5.3080   -0.4270 C   0  0  0  0  0  0  0  0  0  0  0  0
   -1.8070   -0.7840    0.7740 C   0  0  2  0  0  0  0  0  0  0  0  0
   -0.9200   -1.9980    1.0550 C   0  0  0  0  0  0  0  0  0  0  0  0
   -1.5120   -3.2310    0.3690 C   0  0  0  0  0  0  0  0  0  0  0  0
   -0.4110   -4.2170    0.0740 C   0  0  0  0  0  0  0  0  0  0  0  0
   -0.5570   -5.4860   -0.1810 N   0  0  0  0  0  0  0  0  0  0  0  0
    0.5970   -6.0160   -0.3840 N   0  0  0  0  0  0  0  0  0  0  0  0
    1.5200   -5.1040   -0.2650 C   0  0  0  0  0  0  0  0  0  0  0  0
    0.9050   -3.9460    0.0270 O   0  0  0  0  0  0  0  0  0  0  0  0
   -2.8600   -1.1570   -0.1740 N   0  0  0  0  0  0  0  0  0  0  0  0
    2.1690    3.3540   -0.1070 N   0  0  0  0  0  0  0  0  0  0  0  0
    3.5540    3.3560    0.4180 C   0  0  1  0  0  0  0  0  0  0  0  0
    4.4240    2.4890   -0.4950 C   0  0  0  0  0  0  0  0  0  0  0  0
    5.5000    1.7920    0.3390 C   0  0  0  0  0  0  0  0  0  0  0  0
    6.0000    0.5770   -0.4000 C   0  0  0  0  0  0  0  0  0  0  0  0
    6.4570    0.6820   -1.5180 O   0  0  0  0  0  0  0  0  0  0  0  0
    4.0940    4.7870    0.4390 C   0  0  0  0  0  0  0  0  0  0  0  0
    3.3390    5.5670    1.3680 O   0  0  0  0  0  0  0  0  0  0  0  0
   -0.8680    1.5010    0.8670 N   0  0  0  0  0  0  0  0  0  0  0  0
   -0.1680    2.6010    0.1730 C   0  0  2  0  0  0  0  0  0  0  0  0
    1.2710    2.6250    0.6210 C   0  0  0  0  0  0  0  0  0  0  0  0
    1.6240    2.0120    1.6060 O   0  0  0  0  0  0  0  0  0  0  0  0
   -0.8360    3.9330    0.5200 C   0  0  0  0  0  0  0  0  0  0  0  0
   -2.2610    3.9480   -0.0340 C   0  0  0  0  0  0  0  0  0  0  0  0
   -2.9710    5.2260    0.4190 C   0  0  0  0  0  0  0  0  0  0  0  0
   -4.3970    5.2420   -0.1350 C   0  0  0  0  0  0  0  0  0  0  0  0
   -4.3500    5.1990   -1.6640 C   0  0  0  0  0  0  0  0  0  0  0  0
   -3.6410    3.9210   -2.1170 C   0  0  0  0  0  0  0  0  0  0  0  0
   -2.2150    3.9050   -1.5630 C   0  0  0  0  0  0  0  0  0  0  0  0
   -7.0000   -0.0910    0.0460 H   0  0  0  0  0  0  0  0  0  0  0  0
   -7.8800   -1.1830    1.1420 H   0  0  0  0  0  0  0  0  0  0  0  0
   -6.2180   -0.6800    1.5330 H   0  0  0  0  0  0  0  0  0  0  0  0
   -6.9320   -3.3680   -1.7180 H   0  0  0  0  0  0  0  0  0  0  0  0
   -8.2970   -2.7530   -0.7570 H   0  0  0  0  0  0  0  0  0  0  0  0
   -7.4160   -1.6610   -1.8520 H   0  0  0  0  0  0  0  0  0  0  0  0
   -5.5380   -3.0770    1.7210 H   0  0  0  0  0  0  0  0  0  0  0  0
   -7.2000   -3.5790    1.3300 H   0  0  0  0  0  0  0  0  0  0  0  0
   -5.8350   -4.1950    0.3690 H   0  0  0  0  0  0  0  0  0  0  0  0
    5.5720   -0.7450    1.1020 H   0  0  0  0  0  0  0  0  0  0  0  0
    6.0260   -1.7600   -1.5770 H   0  0  0  0  0  0  0  0  0  0  0  0
    7.5250   -1.7520   -0.6140 H   0  0  0  0  0  0  0  0  0  0  0  0
    6.8550   -3.7470    0.2340 H   0  0  0  0  0  0  0  0  0  0  0  0
    5.5920   -2.8480    1.1090 H   0  0  0  0  0  0  0  0  0  0  0  0
    4.5930   -3.0990   -1.5090 H   0  0  0  0  0  0  0  0  0  0  0  0
    5.3340   -4.6800   -1.1600 H   0  0  0  0  0  0  0  0  0  0  0  0
    4.1140   -4.3750    1.1720 H   0  0  0  0  0  0  0  0  0  0  0  0
    3.0820   -3.2570    0.2490 H   0  0  0  0  0  0  0  0  0  0  0  0
    3.2470   -5.3890   -1.4860 H   0  0  0  0  0  0  0  0  0  0  0  0
    3.3030   -6.2220    0.0860 H   0  0  0  0  0  0  0  0  0  0  0  0
   -2.2600   -0.4430    1.7050 H   0  0  0  0  0  0  0  0  0  0  0  0
    0.0820   -1.8130    0.6670 H   0  0  0  0  0  0  0  0  0  0  0  0
   -0.8680   -2.1700    2.1300 H   0  0  0  0  0  0  0  0  0  0  0  0
   -2.2480   -3.6950    1.0260 H   0  0  0  0  0  0  0  0  0  0  0  0
   -1.9930   -2.9340   -0.5630 H   0  0  0  0  0  0  0  0  0  0  0  0
   -2.6720   -1.1750   -1.1250 H   0  0  0  0  0  0  0  0  0  0  0  0
    1.9170    3.8370   -0.9110 H   0  0  0  0  0  0  0  0  0  0  0  0
    3.5620    2.9460    1.4280 H   0  0  0  0  0  0  0  0  0  0  0  0
    3.8020    1.7390   -0.9850 H   0  0  0  0  0  0  0  0  0  0  0  0
    4.8980    3.1170   -1.2490 H   0  0  0  0  0  0  0  0  0  0  0  0
    6.3290    2.4790    0.5110 H   0  0  0  0  0  0  0  0  0  0  0  0
    5.0770    1.4860    1.2960 H   0  0  0  0  0  0  0  0  0  0  0  0
    5.1410    4.7760    0.7410 H   0  0  0  0  0  0  0  0  0  0  0  0
    4.0080    5.2230   -0.5560 H   0  0  0  0  0  0  0  0  0  0  0  0
    3.6260    6.4880    1.4340 H   0  0  0  0  0  0  0  0  0  0  0  0
   -1.2330    1.6100    1.7590 H   0  0  0  0  0  0  0  0  0  0  0  0
   -0.2130    2.4400   -0.9040 H   0  0  0  0  0  0  0  0  0  0  0  0
   -0.8650    4.0530    1.6030 H   0  0  0  0  0  0  0  0  0  0  0  0
   -0.2660    4.7510    0.0790 H   0  0  0  0  0  0  0  0  0  0  0  0
   -2.8050    3.0800    0.3380 H   0  0  0  0  0  0  0  0  0  0  0  0
   -3.0040    5.2570    1.5080 H   0  0  0  0  0  0  0  0  0  0  0  0
   -2.4270    6.0950    0.0470 H   0  0  0  0  0  0  0  0  0  0  0  0
   -4.9400    4.3730    0.2360 H   0  0  0  0  0  0  0  0  0  0  0  0
   -4.9020    6.1520    0.1870 H   0  0  0  0  0  0  0  0  0  0  0  0
   -5.3660    5.2100   -2.0590 H   0  0  0  0  0  0  0  0  0  0  0  0
   -3.8060    6.0670   -2.0360 H   0  0  0  0  0  0  0  0  0  0  0  0
   -4.1850    3.0520   -1.7450 H   0  0  0  0  0  0  0  0  0  0  0  0
   -3.6080    3.8900   -3.2060 H   0  0  0  0  0  0  0  0  0  0  0  0
   -1.6710    4.7740   -1.9340 H   0  0  0  0  0  0  0  0  0  0  0  0
   -1.7100    2.9950   -1.8850 H   0  0  0  0  0  0  0  0  0  0  0  0
 29 30  2  0  0  0  0
 10 29  1  0  0  0  0
 28 29  1  0  0  0  0
 10 11  1  0  0  0  0
 31 32  1  0  0  0  0
 26 31  1  0  0  0  0
 11 12  1  0  0  0  0
 12 13  1  0  0  0  0
 27 28  1  0  0  0  0
 26 27  1  0  0  0  0
 25 26  1  0  0  0  0
 13 14  1  0  0  0  0
 14 15  1  0  0  0  0
 25 35  1  0  0  0  0
 15 22  1  0  0  0  0
 35 36  2  0  0  0  0
 34 35  1  0  0  0  0
 21 22  2  0  0  0  0
 22 23  1  0  0  0  0
 20 21  1  0  0  0  0
 34 37  1  0  0  0  0
 33 34  1  0  0  0  0
  8  9  2  0  0  0  0
 19 23  1  0  0  0  0
 37 38  1  0  0  0  0
 19 20  2  0  0  0  0
  9 33  1  0  0  0  0
  9 16  1  0  0  0  0
 18 19  1  0  0  0  0
 16 17  1  0  0  0  0
 17 18  1  0  0  0  0
 38 43  1  0  0  0  0
 42 43  1  0  0  0  0
 38 39  1  0  0  0  0
 39 40  1  0  0  0  0
 16 24  1  0  0  0  0
  2 24  1  0  0  0  0
 41 42  1  0  0  0  0
 40 41  1  0  0  0  0
  2  3  1  0  0  0  0
  1  2  2  0  0  0  0
  3  4  1  0  0  0  0
  4  6  1  0  0  0  0
  4  5  1  0  0  0  0
  4  7  1  0  0  0  0
 33 79  1  0  0  0  0
 34 80  1  0  0  0  0
 37 81  1  0  0  0  0
 37 82  1  0  0  0  0
 38 83  1  0  0  0  0
 39 85  1  0  0  0  0
 39 84  1  0  0  0  0
 40 87  1  0  0  0  0
 40 86  1  0  0  0  0
 41 89  1  0  0  0  0
 41 88  1  0  0  0  0
 42 91  1  0  0  0  0
 42 90  1  0  0  0  0
 43 92  1  0  0  0  0
 43 93  1  0  0  0  0
 25 70  1  0  0  0  0
 26 71  1  0  0  0  0
 27 72  1  0  0  0  0
 27 73  1  0  0  0  0
 28 74  1  0  0  0  0
 28 75  1  0  0  0  0
 10 53  1  0  0  0  0
 11 54  1  0  0  0  0
 11 55  1  0  0  0  0
 12 56  1  0  0  0  0
 12 57  1  0  0  0  0
 13 59  1  0  0  0  0
 13 58  1  0  0  0  0
 14 60  1  0  0  0  0
 14 61  1  0  0  0  0
 15 62  1  0  0  0  0
 15 63  1  0  0  0  0
 31 76  1  0  0  0  0
 31 77  1  0  0  0  0
 32 78  1  0  0  0  0
 16 64  1  0  0  0  0
 17 65  1  0  0  0  0
 17 66  1  0  0  0  0
 18 67  1  0  0  0  0
 18 68  1  0  0  0  0
 24 69  1  0  0  0  0
  5 44  1  0  0  0  0
  5 45  1  0  0  0  0
  5 46  1  0  0  0  0
  6 47  1  0  0  0  0
  6 48  1  0  0  0  0
  6 49  1  0  0  0  0
  7 50  1  0  0  0  0
  7 51  1  0  0  0  0
  7 52  1  0  0  0  0
M  END
> <OPENEYE_ISO_SMILES>
CC(C)(C)OC(=O)N[C@H]1CCc2nnc(o2)CCCCCNC(=O)CC[C@H](NC(=O)[C@@H](NC1=O)CC3CCCCC3)CO

> <OPENEYE_INCHI>
InChI=1S/C30H50N6O7/c1-30(2,3)43-29(41)34-22-14-16-26-36-35-25(42-26)12-8-5-9-17-31-24(38)15-13-21(19-37)32-28(40)23(33-27(22)39)18-20-10-6-4-7-11-20/h20-23,37H,4-19H2,1-3H3,(H,31,38)(H,32,40)(H,33,39)(H,34,41)/t21-,22-,23-/m0/s1

> <OPENEYE_INCHIKEY>
MQJMFPBPVUONNJ-VABKMULXSA-N

> <FORMULA>
C30H50N6O7

$$$$
