Y8S
  -OEChem-02242320043D

 75 77  0     1  0  0  0  0  0999 V2000
    2.5400   -0.3370   -0.1410 N   0  0  0  0  0  0  0  0  0  0  0  0
    1.2690    0.1050   -0.0570 C   0  0  0  0  0  0  0  0  0  0  0  0
    0.3410   -1.0100   -2.0680 C   0  0  0  0  0  0  0  0  0  0  0  0
   -1.1320   -0.0500   -0.3680 N   0  0  0  0  0  0  0  0  0  0  0  0
   -2.2780   -0.7530   -0.2670 C   0  0  0  0  0  0  0  0  0  0  0  0
   -4.6400   -0.9330    0.0210 C   0  0  0  0  0  0  0  0  0  0  0  0
   -5.8610   -0.0350    0.2340 C   0  0  1  0  0  0  0  0  0  0  0  0
   -7.1290   -0.8860    0.2140 C   0  0  0  0  0  0  0  0  0  0  0  0
   -8.3600   -0.0390    0.4980 C   0  0  1  0  0  0  0  0  0  0  0  0
   -8.2160    0.7110    1.8230 C   0  0  0  0  0  0  0  0  0  0  0  0
   -6.9660    1.5950    1.7460 C   0  0  1  0  0  0  0  0  0  0  0  0
   -5.7430    0.6760    1.5860 C   0  0  0  0  0  0  0  0  0  0  0  0
    3.5120   -2.1550    1.5990 C   0  0  0  0  0  0  0  0  0  0  0  0
    5.5170   -3.3270    1.5410 C   0  0  0  0  0  0  0  0  0  0  0  0
    5.8350   -1.9820    2.2310 C   0  0  0  0  0  0  0  0  0  0  0  0
    4.5980   -1.1340    1.8550 C   0  0  1  0  0  0  0  0  0  0  0  0
    4.8730   -0.3160    0.5910 C   0  0  0  0  0  0  0  0  0  0  0  0
    3.6470    0.5360    0.2580 C   0  0  1  0  0  0  0  0  0  0  0  0
    3.9850    1.4890   -0.8900 C   0  0  2  0  0  0  0  0  0  0  0  0
    0.1390   -0.7480   -0.5740 C   0  0  2  0  0  0  0  0  0  0  0  0
   -0.7360   -1.9760   -2.5660 C   0  0  0  0  0  0  0  0  0  0  0  0
   -0.6110   -2.1420   -4.0820 C   0  0  0  0  0  0  0  0  0  0  0  0
   -0.5540   -3.3360   -1.8870 C   0  0  0  0  0  0  0  0  0  0  0  0
   -7.0560    2.4720    0.5250 C   0  0  0  0  0  0  0  0  0  0  0  0
   -7.7850    2.1840   -0.5040 C   0  0  0  0  0  0  0  0  0  0  0  0
   -8.6390    0.9490   -0.6260 C   0  0  0  0  0  0  0  0  0  0  0  0
    4.0540   -3.3740    1.4330 N   0  0  0  0  0  0  0  0  0  0  0  0
    2.3250   -1.9110    1.5560 O   0  0  0  0  0  0  0  0  0  0  0  0
    4.5060    0.7430   -1.9910 O   0  0  0  0  0  0  0  0  0  0  0  0
   -3.4470   -0.1120   -0.0780 O   0  0  0  0  0  0  0  0  0  0  0  0
   -2.2560   -1.9650   -0.3470 O   0  0  0  0  0  0  0  0  0  0  0  0
    1.0350    1.1880    0.4350 O   0  0  0  0  0  0  0  0  0  0  0  0
    2.7210   -1.2340   -0.4630 H   0  0  0  0  0  0  0  0  0  0  0  0
    0.2670   -0.0710   -2.6150 H   0  0  0  0  0  0  0  0  0  0  0  0
    1.3260   -1.4490   -2.2300 H   0  0  0  0  0  0  0  0  0  0  0  0
   -1.1500    0.9180   -0.3040 H   0  0  0  0  0  0  0  0  0  0  0  0
   -4.5420   -1.6170    0.8640 H   0  0  0  0  0  0  0  0  0  0  0  0
   -4.7650   -1.5050   -0.8980 H   0  0  0  0  0  0  0  0  0  0  0  0
   -5.9090    0.7070   -0.5630 H   0  0  0  0  0  0  0  0  0  0  0  0
   -7.2330   -1.3500   -0.7670 H   0  0  0  0  0  0  0  0  0  0  0  0
   -7.0490   -1.6660    0.9710 H   0  0  0  0  0  0  0  0  0  0  0  0
   -9.2200   -0.7040    0.5750 H   0  0  0  0  0  0  0  0  0  0  0  0
   -9.0960    1.3320    1.9900 H   0  0  0  0  0  0  0  0  0  0  0  0
   -8.1100   -0.0040    2.6390 H   0  0  0  0  0  0  0  0  0  0  0  0
   -6.8720    2.2030    2.6460 H   0  0  0  0  0  0  0  0  0  0  0  0
   -5.7290   -0.0610    2.3890 H   0  0  0  0  0  0  0  0  0  0  0  0
   -4.8290    1.2690    1.6130 H   0  0  0  0  0  0  0  0  0  0  0  0
    5.9700   -3.3590    0.5500 H   0  0  0  0  0  0  0  0  0  0  0  0
    5.9100   -2.1050    3.3120 H   0  0  0  0  0  0  0  0  0  0  0  0
    6.7470   -1.5430    1.8270 H   0  0  0  0  0  0  0  0  0  0  0  0
    4.3180   -0.4780    2.6790 H   0  0  0  0  0  0  0  0  0  0  0  0
    5.7320    0.3330    0.7590 H   0  0  0  0  0  0  0  0  0  0  0  0
    5.0830   -0.9910   -0.2390 H   0  0  0  0  0  0  0  0  0  0  0  0
    3.3560    1.1130    1.1360 H   0  0  0  0  0  0  0  0  0  0  0  0
    5.2240    2.6910   -0.3320 S   0  0  0  0  0  0  0  0  0  0  0  0
    3.0830    2.0160   -1.2020 H   0  0  0  0  0  0  0  0  0  0  0  0
    0.1240   -1.6960   -0.0370 H   0  0  0  0  0  0  0  0  0  0  0  0
   -1.7210   -1.5780   -2.3230 H   0  0  0  0  0  0  0  0  0  0  0  0
    0.3740   -2.5400   -4.3240 H   0  0  0  0  0  0  0  0  0  0  0  0
   -1.3780   -2.8300   -4.4360 H   0  0  0  0  0  0  0  0  0  0  0  0
   -0.7410   -1.1730   -4.5650 H   0  0  0  0  0  0  0  0  0  0  0  0
   -0.6430   -3.2180   -0.8080 H   0  0  0  0  0  0  0  0  0  0  0  0
   -1.3210   -4.0240   -2.2420 H   0  0  0  0  0  0  0  0  0  0  0  0
    0.4310   -3.7340   -2.1300 H   0  0  0  0  0  0  0  0  0  0  0  0
   -6.4830    3.3880    0.5070 H   0  0  0  0  0  0  0  0  0  0  0  0
   -7.7660    2.8690   -1.3390 H   0  0  0  0  0  0  0  0  0  0  0  0
   -8.4500    0.4640   -1.5830 H   0  0  0  0  0  0  0  0  0  0  0  0
   -9.6860    1.2520   -0.5820 H   0  0  0  0  0  0  0  0  0  0  0  0
    3.8950    0.0800   -2.3410 H   0  0  0  0  0  0  0  0  0  0  0  0
    6.3940    2.0250    0.1240 O   0  0  0  0  0  0  0  0  0  0  0  0
    5.3080    3.7790   -1.2430 O   0  0  0  0  0  0  0  0  0  0  0  0
    4.6240    3.3000    0.9260 O   0  0  0  0  0  0  0  0  0  0  0  0
    5.8780   -4.1570    2.1480 H   0  0  0  0  0  0  0  0  0  0  0  0
    3.5440   -4.1810    1.2630 H   0  0  0  0  0  0  0  0  0  0  0  0
    5.1820    3.9710    1.3430 H   0  0  0  0  0  0  0  0  0  0  0  0
  8  9  1  0  0  0  0
  7  8  1  0  0  0  0
  9 26  1  0  0  0  0
 25 26  1  0  0  0  0
 13 28  2  0  0  0  0
  9 10  1  0  0  0  0
  6  7  1  0  0  0  0
  7 12  1  0  0  0  0
 13 27  1  0  0  0  0
 13 16  1  0  0  0  0
 24 25  2  0  0  0  0
 14 27  1  0  0  0  0
  6 30  1  0  0  0  0
 11 12  1  0  0  0  0
  5 31  2  0  0  0  0
 10 11  1  0  0  0  0
 11 24  1  0  0  0  0
  5 30  1  0  0  0  0
 16 17  1  0  0  0  0
 15 16  1  0  0  0  0
  4  5  1  0  0  0  0
 14 15  1  0  0  0  0
 21 23  1  0  0  0  0
 17 18  1  0  0  0  0
  4 20  1  0  0  0  0
  2 20  1  0  0  0  0
  3 20  1  0  0  0  0
  1  2  1  0  0  0  0
  1 18  1  0  0  0  0
  2 32  2  0  0  0  0
  3 21  1  0  0  0  0
 21 22  1  0  0  0  0
 18 19  1  0  0  0  0
 19 29  1  0  0  0  0
  1 33  1  0  0  0  0
  3 34  1  0  0  0  0
  3 35  1  0  0  0  0
  4 36  1  0  0  0  0
  6 37  1  0  0  0  0
  6 38  1  0  0  0  0
  7 39  1  0  0  0  0
  8 40  1  0  0  0  0
  8 41  1  0  0  0  0
  9 42  1  0  0  0  0
 10 43  1  0  0  0  0
 10 44  1  0  0  0  0
 11 45  1  0  0  0  0
 12 46  1  0  0  0  0
 12 47  1  0  0  0  0
 14 48  1  0  0  0  0
 15 49  1  0  0  0  0
 15 50  1  0  0  0  0
 16 51  1  0  0  0  0
 17 52  1  0  0  0  0
 17 53  1  0  0  0  0
 18 54  1  0  0  0  0
 19 55  1  0  0  0  0
 19 56  1  0  0  0  0
 20 57  1  0  0  0  0
 21 58  1  0  0  0  0
 22 59  1  0  0  0  0
 22 60  1  0  0  0  0
 22 61  1  0  0  0  0
 23 62  1  0  0  0  0
 23 63  1  0  0  0  0
 23 64  1  0  0  0  0
 24 65  1  0  0  0  0
 25 66  1  0  0  0  0
 26 67  1  0  0  0  0
 26 68  1  0  0  0  0
 29 69  1  0  0  0  0
 55 70  2  0  0  0  0
 55 71  2  0  0  0  0
 55 72  1  0  0  0  0
 14 73  1  0  0  0  0
 27 74  1  0  0  0  0
 72 75  1  0  0  0  0
M  END
> <OPENEYE_ISO_SMILES>
CC(C)C[C@@H](C(=O)N[C@@H](C[C@@H]1CCNC1=O)[C@H](O)S(=O)(=O)O)NC(=O)OC[C@H]2C[C@@H]3CC=C[C@@H](C3)C2

> <OPENEYE_INCHI>
InChI=1S/C24H39N3O8S/c1-14(2)8-19(27-24(31)35-13-17-10-15-4-3-5-16(9-15)11-17)22(29)26-20(23(30)36(32,33)34)12-18-6-7-25-21(18)28/h3-4,14-20,23,30H,5-13H2,1-2H3,(H,25,28)(H,26,29)(H,27,31)(H,32,33,34)/t15-,16+,17+,18-,19-,20-,23+/m0/s1

> <OPENEYE_INCHIKEY>
ZIWRGXZFSGDQST-REFFYEJJSA-N

> <FORMULA>
C24H39N3O8S

$$$$
