Y8V
  -OEChem-02242320043D

 75 77  0     1  0  0  0  0  0999 V2000
   -1.3220   -0.1050    0.6610 C   0  0  0  0  0  0  0  0  0  0  0  0
   -0.6380   -0.8870   -1.5910 C   0  0  0  0  0  0  0  0  0  0  0  0
    0.3140   -0.6260   -2.7590 C   0  0  0  0  0  0  0  0  0  0  0  0
    0.0680   -1.6600   -3.8590 C   0  0  0  0  0  0  0  0  0  0  0  0
    0.0660    0.7780   -3.3150 C   0  0  0  0  0  0  0  0  0  0  0  0
    2.1150    0.3080   -0.5130 C   0  0  0  0  0  0  0  0  0  0  0  0
    4.4680    0.6500   -0.7220 C   0  0  0  0  0  0  0  0  0  0  0  0
    8.2700    0.4700   -0.1680 C   0  0  2  0  0  0  0  0  0  0  0  0
    8.2890    0.9490    1.2840 C   0  0  0  0  0  0  0  0  0  0  0  0
    7.1210    0.2890    2.0270 C   0  0  1  0  0  0  0  0  0  0  0  0
   -3.5110    2.6090    0.0980 C   0  0  0  0  0  0  0  0  0  0  0  0
   -5.5940    3.3980   -0.5620 C   0  0  0  0  0  0  0  0  0  0  0  0
   -5.6950    3.1680    0.9620 C   0  0  0  0  0  0  0  0  0  0  0  0
   -4.4600    2.2770    1.2290 C   0  0  1  0  0  0  0  0  0  0  0  0
   -4.8470    0.7970    1.1870 C   0  0  0  0  0  0  0  0  0  0  0  0
   -3.6150   -0.0610    1.4840 C   0  0  1  0  0  0  0  0  0  0  0  0
   -4.0270   -1.5320    1.5650 C   0  0  1  0  0  0  0  0  0  0  0  0
   -0.3090    0.0680   -0.4410 C   0  0  2  0  0  0  0  0  0  0  0  0
    5.7720    0.2230   -0.0460 C   0  0  1  0  0  0  0  0  0  0  0  0
    6.9450    0.8020   -0.8360 C   0  0  0  0  0  0  0  0  0  0  0  0
    5.8120    0.7770    1.3830 C   0  0  0  0  0  0  0  0  0  0  0  0
    7.2030   -1.2040    1.8490 C   0  0  0  0  0  0  0  0  0  0  0  0
    7.8280   -1.7690    0.8670 C   0  0  0  0  0  0  0  0  0  0  0  0
    8.5580   -1.0250   -0.2210 C   0  0  0  0  0  0  0  0  0  0  0  0
   -4.1710    3.2400   -0.8880 N   0  0  0  0  0  0  0  0  0  0  0  0
   -2.6290    0.1130    0.4140 N   0  0  0  0  0  0  0  0  0  0  0  0
    1.0290   -0.2320    0.0750 N   0  0  0  0  0  0  0  0  0  0  0  0
   -2.3270    2.3480    0.0860 O   0  0  0  0  0  0  0  0  0  0  0  0
   -5.0720   -1.6830    2.5270 O   0  0  0  0  0  0  0  0  0  0  0  0
    3.3440    0.0330   -0.0390 O   0  0  0  0  0  0  0  0  0  0  0  0
    1.9840    1.0440   -1.4720 O   0  0  0  0  0  0  0  0  0  0  0  0
   -0.9620   -0.4450    1.7680 O   0  0  0  0  0  0  0  0  0  0  0  0
   -1.6660   -0.7240   -1.9160 H   0  0  0  0  0  0  0  0  0  0  0  0
   -0.5230   -1.9170   -1.2520 H   0  0  0  0  0  0  0  0  0  0  0  0
    1.3450   -0.7020   -2.4120 H   0  0  0  0  0  0  0  0  0  0  0  0
   -0.9620   -1.5840   -4.2060 H   0  0  0  0  0  0  0  0  0  0  0  0
    0.7470   -1.4740   -4.6920 H   0  0  0  0  0  0  0  0  0  0  0  0
    0.2450   -2.6600   -3.4630 H   0  0  0  0  0  0  0  0  0  0  0  0
   -0.9650    0.8540   -3.6620 H   0  0  0  0  0  0  0  0  0  0  0  0
    0.2410    1.5150   -2.5320 H   0  0  0  0  0  0  0  0  0  0  0  0
    0.7440    0.9650   -4.1480 H   0  0  0  0  0  0  0  0  0  0  0  0
    4.3710    1.7350   -0.6730 H   0  0  0  0  0  0  0  0  0  0  0  0
    4.4780    0.3320   -1.7650 H   0  0  0  0  0  0  0  0  0  0  0  0
    9.0630    0.9880   -0.7070 H   0  0  0  0  0  0  0  0  0  0  0  0
    9.2300    0.6640    1.7530 H   0  0  0  0  0  0  0  0  0  0  0  0
    8.1770    2.0330    1.3140 H   0  0  0  0  0  0  0  0  0  0  0  0
    7.1460    0.5490    3.0860 H   0  0  0  0  0  0  0  0  0  0  0  0
   -6.1870    2.6560   -1.0960 H   0  0  0  0  0  0  0  0  0  0  0  0
   -5.9310    4.4030   -0.8150 H   0  0  0  0  0  0  0  0  0  0  0  0
   -5.6220    4.1100    1.5050 H   0  0  0  0  0  0  0  0  0  0  0  0
   -6.6170    2.6440    1.2170 H   0  0  0  0  0  0  0  0  0  0  0  0
   -4.0090    2.5250    2.1900 H   0  0  0  0  0  0  0  0  0  0  0  0
   -5.6150    0.6010    1.9340 H   0  0  0  0  0  0  0  0  0  0  0  0
   -5.2310    0.5510    0.1970 H   0  0  0  0  0  0  0  0  0  0  0  0
   -3.1790    0.2470    2.4340 H   0  0  0  0  0  0  0  0  0  0  0  0
   -3.1680   -2.1340    1.8630 H   0  0  0  0  0  0  0  0  0  0  0  0
   -4.6160   -2.0850   -0.0590 S   0  0  0  0  0  0  0  0  0  0  0  0
   -0.3370    1.0950   -0.8030 H   0  0  0  0  0  0  0  0  0  0  0  0
    5.8260   -0.8650   -0.0160 H   0  0  0  0  0  0  0  0  0  0  0  0
    6.8360    1.8850   -0.8960 H   0  0  0  0  0  0  0  0  0  0  0  0
    6.9380    0.3860   -1.8440 H   0  0  0  0  0  0  0  0  0  0  0  0
    4.9690    0.3880    1.9530 H   0  0  0  0  0  0  0  0  0  0  0  0
    5.7700    1.8660    1.3580 H   0  0  0  0  0  0  0  0  0  0  0  0
    6.7160   -1.8360    2.5770 H   0  0  0  0  0  0  0  0  0  0  0  0
    7.8120   -2.8480    0.8170 H   0  0  0  0  0  0  0  0  0  0  0  0
    8.2580   -1.4110   -1.1950 H   0  0  0  0  0  0  0  0  0  0  0  0
    9.6270   -1.1870   -0.0880 H   0  0  0  0  0  0  0  0  0  0  0  0
   -3.7600    3.5520   -1.7090 H   0  0  0  0  0  0  0  0  0  0  0  0
   -2.9170    0.3850   -0.4710 H   0  0  0  0  0  0  0  0  0  0  0  0
    1.1340   -0.8200    0.8400 H   0  0  0  0  0  0  0  0  0  0  0  0
   -5.8690   -1.1740    2.3250 H   0  0  0  0  0  0  0  0  0  0  0  0
   -5.7840   -1.3680   -0.4370 O   0  0  0  0  0  0  0  0  0  0  0  0
   -3.5270   -2.2380   -0.9590 O   0  0  0  0  0  0  0  0  0  0  0  0
   -5.1090   -3.5050    0.1790 O   0  0  0  0  0  0  0  0  0  0  0  0
   -5.4590   -3.9380   -0.6120 H   0  0  0  0  0  0  0  0  0  0  0  0
  8 20  1  0  0  0  0
 19 20  1  0  0  0  0
  8 24  1  0  0  0  0
 23 24  1  0  0  0  0
 11 28  2  0  0  0  0
  8  9  1  0  0  0  0
  7 19  1  0  0  0  0
 19 21  1  0  0  0  0
 22 23  2  0  0  0  0
 11 25  1  0  0  0  0
 11 14  1  0  0  0  0
 12 25  1  0  0  0  0
  7 30  1  0  0  0  0
 10 21  1  0  0  0  0
  6 31  2  0  0  0  0
  9 10  1  0  0  0  0
 10 22  1  0  0  0  0
  6 30  1  0  0  0  0
 14 15  1  0  0  0  0
 13 14  1  0  0  0  0
  6 27  1  0  0  0  0
 12 13  1  0  0  0  0
  3  5  1  0  0  0  0
 15 16  1  0  0  0  0
 18 27  1  0  0  0  0
  1 18  1  0  0  0  0
  2 18  1  0  0  0  0
 16 26  1  0  0  0  0
  1 26  1  0  0  0  0
  2  3  1  0  0  0  0
  3  4  1  0  0  0  0
 16 17  1  0  0  0  0
  1 32  2  0  0  0  0
 17 29  1  0  0  0  0
  2 33  1  0  0  0  0
  2 34  1  0  0  0  0
  3 35  1  0  0  0  0
  4 36  1  0  0  0  0
  4 37  1  0  0  0  0
  4 38  1  0  0  0  0
  5 39  1  0  0  0  0
  5 40  1  0  0  0  0
  5 41  1  0  0  0  0
  7 42  1  0  0  0  0
  7 43  1  0  0  0  0
  8 44  1  0  0  0  0
  9 45  1  0  0  0  0
  9 46  1  0  0  0  0
 10 47  1  0  0  0  0
 12 48  1  0  0  0  0
 12 49  1  0  0  0  0
 13 50  1  0  0  0  0
 13 51  1  0  0  0  0
 14 52  1  0  0  0  0
 15 53  1  0  0  0  0
 15 54  1  0  0  0  0
 16 55  1  0  0  0  0
 17 56  1  0  0  0  0
 17 57  1  0  0  0  0
 18 58  1  0  0  0  0
 19 59  1  0  0  0  0
 20 60  1  0  0  0  0
 20 61  1  0  0  0  0
 21 62  1  0  0  0  0
 21 63  1  0  0  0  0
 22 64  1  0  0  0  0
 23 65  1  0  0  0  0
 24 66  1  0  0  0  0
 24 67  1  0  0  0  0
 25 68  1  0  0  0  0
 26 69  1  0  0  0  0
 27 70  1  0  0  0  0
 29 71  1  0  0  0  0
 57 72  2  0  0  0  0
 57 73  2  0  0  0  0
 57 74  1  0  0  0  0
 74 75  1  0  0  0  0
M  END
> <OPENEYE_ISO_SMILES>
CC(C)C[C@@H](C(=O)N[C@@H](C[C@@H]1CCNC1=O)[C@@H](O)S(=O)(=O)O)NC(=O)OC[C@H]2C[C@@H]3CC=C[C@@H](C3)C2

> <OPENEYE_INCHI>
InChI=1S/C24H39N3O8S/c1-14(2)8-19(27-24(31)35-13-17-10-15-4-3-5-16(9-15)11-17)22(29)26-20(23(30)36(32,33)34)12-18-6-7-25-21(18)28/h3-4,14-20,23,30H,5-13H2,1-2H3,(H,25,28)(H,26,29)(H,27,31)(H,32,33,34)/t15-,16+,17+,18-,19-,20-,23-/m0/s1

> <OPENEYE_INCHIKEY>
ZIWRGXZFSGDQST-UIEASHSYSA-N

> <FORMULA>
C24H39N3O8S

$$$$
