@<TRIPOS>MOLECULE
/home/pku/3cl/gett_pdb/7AIG/7AIG_mol2/ligand/7AIG_MRG.pdb
 22 24 0 0 0
SMALL
GASTEIGER

@<TRIPOS>ATOM
      1  P         -6.3880   18.5780  177.4510 P.3   817  MRG817      0.5411
      2  OP1       -7.3540   19.3970  176.6870 O.2   817  MRG817     -0.2272
      3  OP2       -5.2030   18.0190  176.7620 O.2   817  MRG817     -0.2272
      4  O5'       -5.8820   19.4300  178.7080 O.3   817  MRG817     -0.2722
      5  N9        -4.4720   18.5250  182.5360 N.ar  817  MRG817     -0.2713
      6  C4        -3.7300   18.0530  183.5950 C.ar  817  MRG817      0.1722
      7  N3        -3.7750   18.5180  184.8680 N.ar  817  MRG817     -0.1918
      8  C2        -2.9460   17.8560  185.6650 C.ar  817  MRG817      0.2606
      9  N1        -2.1400   16.8230  185.2480 N.ar  817  MRG817     -0.1709
     10  C6        -2.0820   16.3330  183.9450 C.ar  817  MRG817      0.3023
     11  O6        -1.3190   15.3950  183.6690 O.2   817  MRG817     -0.2633
     12  C5        -2.9620   17.0310  183.0830 C.ar  817  MRG817      0.1748
     13  N7        -3.2080   16.8630  181.7260 N.ar  817  MRG817     -0.2173
     14  C8        -4.1050   17.7690  181.4490 C.ar  817  MRG817      0.1816
     15  N2        -2.8650   18.1890  186.9610 N.pl3 817  MRG817     -0.0859
     16  C2'       -4.7890   21.0010  182.4270 C.3   817  MRG817      0.0894
     17  C5'       -6.7320   20.4210  179.2720 C.3   817  MRG817      0.1851
     18  C4'       -6.3690   20.7050  180.7200 C.3   817  MRG817      0.1776
     19  O4'       -6.3380   19.4720  181.4740 O.3   817  MRG817     -0.3326
     20  C1'       -5.4380   19.6200  182.5640 C.3   817  MRG817      0.2095
     21  C3'       -4.9950   21.3000  180.9470 C.3   817  MRG817      0.1859
     22  O3'       -5.0110   22.6980  180.6940 O.3   817  MRG817     -0.2203
@<TRIPOS>BOND
     1     2     1    2
     2     3     1    2
     3     1     4    1
     4     4    17    1
     5    17    18    1
     6    22    21    1
     7    18    21    1
     8    18    19    1
     9    21    16    1
    10    14    13   ar
    11    14     5   ar
    12    19    20    1
    13    13    12   ar
    14    16    20    1
    15     5    20    1
    16     5     6   ar
    17    12     6   ar
    18    12    10   ar
    19     6     7   ar
    20    11    10    2
    21    10     9   ar
    22     7     8   ar
    23     9     8   ar
    24     8    15    1
