8EJ
  -OEChem-02242320013D

 18 18  0     0  0  0  0  0  0999 V2000
   -1.4030    1.1510    0.0000 N   0  0  0  0  0  0  0  0  0  0  0  0
   -0.0870   -1.2560   -0.0000 C   0  0  0  0  0  0  0  0  0  0  0  0
    0.6240   -0.0490   -0.0000 C   0  0  0  0  0  0  0  0  0  0  0  0
   -0.0860    1.1510   -0.0000 C   0  0  0  0  0  0  0  0  0  0  0  0
    2.1020   -0.0480    0.0000 C   0  0  0  0  0  0  0  0  0  0  0  0
   -3.6050    0.0930   -0.0000 C   0  0  0  0  0  0  0  0  0  0  0  0
   -2.0990    0.0300    0.0000 C   0  0  0  0  0  0  0  0  0  0  0  0
   -1.4700   -1.2020    0.0000 C   0  0  0  0  0  0  0  0  0  0  0  0
    2.7750    1.1190   -0.0000 N   0  0  0  0  0  0  0  0  0  0  0  0
    2.7110   -1.1010    0.0000 O   0  0  0  0  0  0  0  0  0  0  0  0
    0.4300   -2.2040   -0.0010 H   0  0  0  0  0  0  0  0  0  0  0  0
    0.4490    2.0900   -0.0000 H   0  0  0  0  0  0  0  0  0  0  0  0
   -3.9680    0.1080   -1.0280 H   0  0  0  0  0  0  0  0  0  0  0  0
   -4.0050   -0.7810    0.5140 H   0  0  0  0  0  0  0  0  0  0  0  0
   -3.9310    0.9970    0.5140 H   0  0  0  0  0  0  0  0  0  0  0  0
   -2.0510   -2.1120   -0.0000 H   0  0  0  0  0  0  0  0  0  0  0  0
    2.2900    1.9590   -0.0000 H   0  0  0  0  0  0  0  0  0  0  0  0
    3.7450    1.1200    0.0000 H   0  0  0  0  0  0  0  0  0  0  0  0
  6  7  1  0  0  0  0
  1  7  2  0  0  0  0
  1  4  1  0  0  0  0
  7  8  1  0  0  0  0
  3  4  2  0  0  0  0
  2  8  2  0  0  0  0
  2  3  1  0  0  0  0
  3  5  1  0  0  0  0
  5  9  1  0  0  0  0
  5 10  2  0  0  0  0
  2 11  1  0  0  0  0
  4 12  1  0  0  0  0
  6 13  1  0  0  0  0
  6 14  1  0  0  0  0
  6 15  1  0  0  0  0
  8 16  1  0  0  0  0
  9 17  1  0  0  0  0
  9 18  1  0  0  0  0
M  END
> <OPENEYE_ISO_SMILES>
Cc1ccc(cn1)C(=O)N

> <OPENEYE_INCHI>
InChI=1S/C7H8N2O/c1-5-2-3-6(4-9-5)7(8)10/h2-4H,1H3,(H2,8,10)

> <OPENEYE_INCHIKEY>
IJXDURUAYOKSIS-UHFFFAOYSA-N

> <FORMULA>
C7H8N2O

$$$$
