6P3
  -OEChem-02242320013D

 24 25  0     0  0  0  0  0  0999 V2000
    1.9410    0.0010   -0.0000 C   0  0  0  0  0  0  0  0  0  0  0  0
    2.6160    1.2210   -0.0010 C   0  0  0  0  0  0  0  0  0  0  0  0
    3.9950    1.2440   -0.0000 C   0  0  0  0  0  0  0  0  0  0  0  0
    4.7090    0.0590   -0.0000 C   0  0  0  0  0  0  0  0  0  0  0  0
    4.0460   -1.1550    0.0000 C   0  0  0  0  0  0  0  0  0  0  0  0
    2.6670   -1.1900    0.0050 C   0  0  0  0  0  0  0  0  0  0  0  0
    0.4600   -0.0310   -0.0000 C   0  0  0  0  0  0  0  0  0  0  0  0
   -0.2200    1.1100   -0.0000 N   0  0  0  0  0  0  0  0  0  0  0  0
   -1.5350    1.1330   -0.0000 C   0  0  0  0  0  0  0  0  0  0  0  0
   -2.2680   -0.0560   -0.0000 C   0  0  0  0  0  0  0  0  0  0  0  0
   -1.5830   -1.2790    0.0000 C   0  0  0  0  0  0  0  0  0  0  0  0
   -0.2030   -1.2590   -0.0060 C   0  0  0  0  0  0  0  0  0  0  0  0
   -3.7440   -0.0240    0.0010 C   0  0  0  0  0  0  0  0  0  0  0  0
   -4.3740   -1.0630    0.0010 O   0  0  0  0  0  0  0  0  0  0  0  0
   -4.3930    1.1570    0.0010 O   0  0  0  0  0  0  0  0  0  0  0  0
    2.0590    2.1470   -0.0010 H   0  0  0  0  0  0  0  0  0  0  0  0
    4.5190    2.1890   -0.0000 H   0  0  0  0  0  0  0  0  0  0  0  0
    5.7890    0.0820   -0.0010 H   0  0  0  0  0  0  0  0  0  0  0  0
    4.6090   -2.0770    0.0000 H   0  0  0  0  0  0  0  0  0  0  0  0
    2.1500   -2.1390    0.0060 H   0  0  0  0  0  0  0  0  0  0  0  0
   -2.0530    2.0810    0.0000 H   0  0  0  0  0  0  0  0  0  0  0  0
   -2.1220   -2.2150    0.0010 H   0  0  0  0  0  0  0  0  0  0  0  0
    0.3570   -2.1820   -0.0100 H   0  0  0  0  0  0  0  0  0  0  0  0
   -5.3590    1.1270    0.0010 H   0  0  0  0  0  0  0  0  0  0  0  0
  3  4  2  0  0  0  0
  4  5  1  0  0  0  0
  2  3  1  0  0  0  0
  5  6  2  0  0  0  0
  1  2  2  0  0  0  0
  1  6  1  0  0  0  0
  1  7  1  0  0  0  0
  7  8  2  0  0  0  0
  7 12  1  0  0  0  0
  8  9  1  0  0  0  0
 11 12  2  0  0  0  0
  9 10  2  0  0  0  0
 10 11  1  0  0  0  0
 10 13  1  0  0  0  0
 13 14  2  0  0  0  0
 13 15  1  0  0  0  0
  2 16  1  0  0  0  0
  3 17  1  0  0  0  0
  4 18  1  0  0  0  0
  5 19  1  0  0  0  0
  6 20  1  0  0  0  0
  9 21  1  0  0  0  0
 11 22  1  0  0  0  0
 12 23  1  0  0  0  0
 15 24  1  0  0  0  0
M  END
> <OPENEYE_ISO_SMILES>
c1ccc(cc1)c2ccc(cn2)C(=O)O

> <OPENEYE_INCHI>
InChI=1S/C12H9NO2/c14-12(15)10-6-7-11(13-8-10)9-4-2-1-3-5-9/h1-8H,(H,14,15)

> <OPENEYE_INCHIKEY>
DLFLQXUYRFIFOK-UHFFFAOYSA-N

> <FORMULA>
C12H9NO2

$$$$
