7WA
  -OEChem-02242320013D

 17 18  0     0  0  0  0  0  0999 V2000
    0.1940    0.4940   -0.0030 C   0  0  0  0  0  0  0  0  0  0  0  0
   -1.7250    1.9800   -0.0000 N   0  0  0  0  0  0  0  0  0  0  0  0
   -1.1960    0.6870   -0.0000 C   0  0  0  0  0  0  0  0  0  0  0  0
   -2.0390   -0.4090    0.0010 C   0  0  0  0  0  0  0  0  0  0  0  0
   -1.5200   -1.6950    0.0010 C   0  0  0  0  0  0  0  0  0  0  0  0
   -0.1560   -1.8990   -0.0000 C   0  0  0  0  0  0  0  0  0  0  0  0
    0.7090   -0.8120   -0.0030 C   0  0  0  0  0  0  0  0  0  0  0  0
    2.0830   -0.6790    0.0000 N   0  0  0  0  0  0  0  0  0  0  0  0
    2.3610    0.6540    0.0020 C   0  0  0  0  0  0  0  0  0  0  0  0
    1.2560    1.3390    0.0010 N   0  0  0  0  0  0  0  0  0  0  0  0
   -1.1310    2.7470   -0.0020 H   0  0  0  0  0  0  0  0  0  0  0  0
   -2.6860    2.1100    0.0010 H   0  0  0  0  0  0  0  0  0  0  0  0
   -3.1090   -0.2630    0.0030 H   0  0  0  0  0  0  0  0  0  0  0  0
   -2.1880   -2.5430    0.0030 H   0  0  0  0  0  0  0  0  0  0  0  0
    0.2390   -2.9040   -0.0000 H   0  0  0  0  0  0  0  0  0  0  0  0
    2.7300   -1.4020    0.0010 H   0  0  0  0  0  0  0  0  0  0  0  0
    3.3540    1.0790    0.0050 H   0  0  0  0  0  0  0  0  0  0  0  0
  2  3  1  0  0  0  0
  3  4  2  0  0  0  0
  4  5  1  0  0  0  0
  1  3  1  0  0  0  0
  5  6  2  0  0  0  0
  6  7  1  0  0  0  0
  1  7  2  0  0  0  0
  1 10  1  0  0  0  0
  7  8  1  0  0  0  0
  9 10  2  0  0  0  0
  8  9  1  0  0  0  0
  2 11  1  0  0  0  0
  2 12  1  0  0  0  0
  4 13  1  0  0  0  0
  5 14  1  0  0  0  0
  6 15  1  0  0  0  0
  8 16  1  0  0  0  0
  9 17  1  0  0  0  0
M  END
> <OPENEYE_ISO_SMILES>
c1cc(c2c(c1)[nH]cn2)N

> <OPENEYE_INCHI>
InChI=1S/C7H7N3/c8-5-2-1-3-6-7(5)10-4-9-6/h1-4H,8H2,(H,9,10)

> <OPENEYE_INCHIKEY>
NZJKEQFPRPAEPO-UHFFFAOYSA-N

> <FORMULA>
C7H7N3

$$$$
