@<TRIPOS>MOLECULE
/home/pku/3cl/gett_pdb/6XHM/6XHM_mol2/ligand/6XHM_V2M.pdb
 34 36 0 0 0
SMALL
GASTEIGER

@<TRIPOS>ATOM
      1  C1        13.2210   21.8290   27.4420 C.3   9001  V2M9001     0.2520
      2  O2        12.8930   20.4760   27.1030 O.2   9001  V2M9001    -0.4750
      3  C3        12.0680   20.2660   26.0310 C.2   9001  V2M9001     0.1255
      4  C4        11.6070   21.2550   25.1730 C.2   9001  V2M9001     0.0331
      5  C5        10.7590   20.9320   24.1190 C.2   9001  V2M9001     0.0040
      6  C6        10.3940   19.6140   23.8710 C.2   9001  V2M9001     0.0155
      7  C7        10.8610   18.6280   24.7300 C.2   9001  V2M9001     0.0700
      8  N8        10.6140   17.2670   24.7310 N.2   9001  V2M9001    -0.2446
      9  C9        11.2820   16.7010   25.8000 C.2   9001  V2M9001     0.1323
     10  C10       11.9720   17.6820   26.4780 C.2   9001  V2M9001     0.0108
     11  C11       11.7130   18.9260   25.8070 C.3   9001  V2M9001     0.1204
     12  C12       11.1880   15.2430   26.0050 C.2   9001  V2M9001     0.2826
     13  O13       10.5200   14.5410   25.2450 O.2   9001  V2M9001    -0.2667
     14  N14       11.8490   14.7490   27.0550 N.am  9001  V2M9001    -0.1927
     15  C15       11.8460   13.3280   27.3560 C.3   9001  V2M9001     0.1731
     16  C17       12.9140   12.9900   28.4020 C.3   9001  V2M9001     0.0311
     17  C18       14.3530   13.1330   27.9180 C.3   9001  V2M9001     0.0022
     18  C19       14.6960   12.0370   26.9290 C.3   9001  V2M9001     0.0001
     19  C20       15.3250   13.1170   29.0900 C.3   9001  V2M9001     0.0001
     20  C21       10.4640   12.9230   27.8620 C.2   9001  V2M9001     0.2613
     21  O22        9.8530   13.6380   28.6580 O.2   9001  V2M9001    -0.2715
     22  N23        9.9730   11.7770   27.3800 N.am  9001  V2M9001    -0.2030
     23  C24        8.7440   11.1830   27.8990 C.3   9001  V2M9001     0.1287
     24  C26        7.7510   10.9260   26.7630 C.3   9001  V2M9001     0.0335
     25  C27        7.1460   12.2530   26.2730 C.3   9001  V2M9001     0.0818
     26  C29        6.2990   13.0130   27.3230 C.3   9001  V2M9001     0.0326
     27  C30        5.2090   13.6830   26.5040 C.3   9001  V2M9001     0.1156
     28  N31        5.1030   12.8240   25.3340 N.am  9001  V2M9001    -0.2054
     29  C32        6.1790   12.0620   25.1190 C.2   9001  V2M9001     0.2410
     30  O33        6.3670   11.3540   24.1370 O.2   9001  V2M9001    -0.2734
     31  C34        9.0520    9.9470   28.7530 C.3   9001  V2M9001     0.2045
     32  O35        7.8430    9.3470   29.2330 O.3   9001  V2M9001    -0.2185
     33  C36        9.9260   10.3240   29.9500 C.3   9001  V2M9001     0.2165
     34  O37       10.2120    9.2260   30.8080 O.3   9001  V2M9001    -0.2175
@<TRIPOS>BOND
     1     6     5    2
     2     6     7    1
     3     5     4    1
     4    30    29    2
     5     7     8    2
     6     7    11    1
     7     8     9    1
     8    29    28   am
     9    29    25    1
    10     4     3    2
    11    13    12    2
    12    28    27    1
    13     9    12    1
    14     9    10    2
    15    11     3    1
    16    11    10    1
    17    12    14   am
    18     3     2    1
    19    25    24    1
    20    25    26    1
    21    27    26    1
    22    24    23    1
    23    18    17    1
    24    14    15    1
    25     2     1    1
    26    15    20    1
    27    15    16    1
    28    22    20   am
    29    22    23    1
    30    20    21    2
    31    23    31    1
    32    17    16    1
    33    17    19    1
    34    31    32    1
    35    31    33    1
    36    33    34    1
