Y8Y
  -OEChem-02242320043D

 77 79  0     1  0  0  0  0  0999 V2000
   -2.6510   -0.2660    0.5560 N   0  0  0  0  0  0  0  0  0  0  0  0
   -1.4650    0.1030    0.0310 C   0  0  0  0  0  0  0  0  0  0  0  0
   -0.6990    2.0930    1.2960 C   0  0  0  0  0  0  0  0  0  0  0  0
   -2.0070    2.1420    2.0890 C   0  0  0  0  0  0  0  0  0  0  0  0
   -1.8130    1.4430    3.4360 C   0  0  0  0  0  0  0  0  0  0  0  0
    3.2210    0.3140    0.2770 O   0  0  0  0  0  0  0  0  0  0  0  0
    6.8600   -0.2290    1.0660 C   0  0  0  0  0  0  0  0  0  0  0  0
    8.1770   -0.1010    0.3130 C   0  0  2  0  0  0  0  0  0  0  0  0
    8.2670    1.2700   -0.3560 C   0  0  0  0  0  0  0  0  0  0  0  0
    7.1290    1.3780   -1.3710 C   0  0  2  0  0  0  0  0  0  0  0  0
    5.7830    1.2720   -0.6720 C   0  0  0  0  0  0  0  0  0  0  0  0
    7.2980    0.3200   -2.4530 C   0  0  0  0  0  0  0  0  0  0  0  0
    7.3800   -1.0890   -1.8850 C   0  0  0  0  0  0  0  0  0  0  0  0
   -5.1210    2.3060   -1.8670 C   0  0  0  0  0  0  0  0  0  0  0  0
   -6.9180    2.1930   -0.3990 C   0  0  0  0  0  0  0  0  0  0  0  0
   -6.0470    0.9530   -0.0950 C   0  0  0  0  0  0  0  0  0  0  0  0
   -4.7150    1.3260   -0.7880 C   0  0  1  0  0  0  0  0  0  0  0  0
   -4.0680    0.0860   -1.4070 C   0  0  0  0  0  0  0  0  0  0  0  0
   -3.6670   -0.8880   -0.2970 C   0  0  1  0  0  0  0  0  0  0  0  0
   -3.0990   -2.1650   -0.9190 C   0  0  2  0  0  0  0  0  0  0  0  0
   -0.3800    0.6430    0.9270 C   0  0  2  0  0  0  0  0  0  0  0  0
   -2.4070    3.6000    2.3240 C   0  0  0  0  0  0  0  0  0  0  0  0
    2.0500    0.4700    0.9240 C   0  0  0  0  0  0  0  0  0  0  0  0
    4.4140    0.1920    1.0950 C   0  0  0  0  0  0  0  0  0  0  0  0
    5.6470    0.0210    0.1830 C   0  0  0  0  0  0  0  0  0  0  0  0
    8.3490   -1.2050   -0.7200 C   0  0  0  0  0  0  0  0  0  0  0  0
   -6.3580    2.7740   -1.6260 N   0  0  0  0  0  0  0  0  0  0  0  0
    0.9040    0.5900    0.2250 N   0  0  0  0  0  0  0  0  0  0  0  0
   -4.4280    2.6270   -2.8090 O   0  0  0  0  0  0  0  0  0  0  0  0
   -4.0760   -2.7500   -1.7810 O   0  0  0  0  0  0  0  0  0  0  0  0
    2.0270    0.5040    2.1380 O   0  0  0  0  0  0  0  0  0  0  0  0
   -1.2710    0.0000   -1.1620 O   0  0  0  0  0  0  0  0  0  0  0  0
   -2.8290   -0.1230    1.4980 H   0  0  0  0  0  0  0  0  0  0  0  0
   -0.8030    2.6860    0.3870 H   0  0  0  0  0  0  0  0  0  0  0  0
    0.1090    2.5000    1.9040 H   0  0  0  0  0  0  0  0  0  0  0  0
   -2.7920    1.6360    1.5270 H   0  0  0  0  0  0  0  0  0  0  0  0
   -1.4830    0.4170    3.2690 H   0  0  0  0  0  0  0  0  0  0  0  0
   -1.0610    1.9760    4.0170 H   0  0  0  0  0  0  0  0  0  0  0  0
   -2.7570    1.4370    3.9820 H   0  0  0  0  0  0  0  0  0  0  0  0
    6.7900   -1.2360    1.4960 H   0  0  0  0  0  0  0  0  0  0  0  0
    6.8530    0.4860    1.8980 H   0  0  0  0  0  0  0  0  0  0  0  0
    9.0010   -0.1770    1.0410 H   0  0  0  0  0  0  0  0  0  0  0  0
    8.1650    2.0520    0.3950 H   0  0  0  0  0  0  0  0  0  0  0  0
    9.2240    1.3690   -0.8650 H   0  0  0  0  0  0  0  0  0  0  0  0
    7.1950    2.3710   -1.8470 H   0  0  0  0  0  0  0  0  0  0  0  0
    5.6370    2.1560   -0.0380 H   0  0  0  0  0  0  0  0  0  0  0  0
    4.9860    1.2770   -1.4270 H   0  0  0  0  0  0  0  0  0  0  0  0
    6.4530    0.3800   -3.1480 H   0  0  0  0  0  0  0  0  0  0  0  0
    8.2110    0.5330   -3.0220 H   0  0  0  0  0  0  0  0  0  0  0  0
    6.3960   -1.4590   -1.6160 H   0  0  0  0  0  0  0  0  0  0  0  0
    7.7430   -1.7550   -2.6930 H   0  0  0  0  0  0  0  0  0  0  0  0
   -7.9530    1.8960   -0.5620 H   0  0  0  0  0  0  0  0  0  0  0  0
   -5.9070    0.8280    0.9790 H   0  0  0  0  0  0  0  0  0  0  0  0
   -6.4780    0.0550   -0.5370 H   0  0  0  0  0  0  0  0  0  0  0  0
   -4.0360    1.7990   -0.0790 H   0  0  0  0  0  0  0  0  0  0  0  0
   -4.7780   -0.3990   -2.0760 H   0  0  0  0  0  0  0  0  0  0  0  0
   -3.1810    0.3810   -1.9680 H   0  0  0  0  0  0  0  0  0  0  0  0
   -4.5430   -1.1350    0.3040 H   0  0  0  0  0  0  0  0  0  0  0  0
   -2.6700   -3.3390    0.3950 S   0  0  0  0  0  0  0  0  0  0  0  0
   -2.2050   -1.9220   -1.4940 H   0  0  0  0  0  0  0  0  0  0  0  0
   -0.3240    0.0410    1.8330 H   0  0  0  0  0  0  0  0  0  0  0  0
   -2.5460    4.0980    1.3640 H   0  0  0  0  0  0  0  0  0  0  0  0
   -3.3390    3.6340    2.8890 H   0  0  0  0  0  0  0  0  0  0  0  0
   -1.6230    4.1060    2.8860 H   0  0  0  0  0  0  0  0  0  0  0  0
    4.5330    1.0900    1.7010 H   0  0  0  0  0  0  0  0  0  0  0  0
    4.3210   -0.6770    1.7460 H   0  0  0  0  0  0  0  0  0  0  0  0
    5.4540   -0.8480   -0.4460 H   0  0  0  0  0  0  0  0  0  0  0  0
    9.3770   -1.1770   -1.1040 H   0  0  0  0  0  0  0  0  0  0  0  0
    8.2100   -2.1780   -0.2320 H   0  0  0  0  0  0  0  0  0  0  0  0
    0.9300    0.6400   -0.7440 H   0  0  0  0  0  0  0  0  0  0  0  0
   -4.3520   -2.1770   -2.5090 H   0  0  0  0  0  0  0  0  0  0  0  0
   -3.7780   -3.5430    1.2630 O   0  0  0  0  0  0  0  0  0  0  0  0
   -1.9440   -4.4390   -0.1360 O   0  0  0  0  0  0  0  0  0  0  0  0
   -1.6540   -2.5980    1.2520 O   0  0  0  0  0  0  0  0  0  0  0  0
   -6.8540    2.9090    0.4200 H   0  0  0  0  0  0  0  0  0  0  0  0
   -6.8220    3.4110   -2.1910 H   0  0  0  0  0  0  0  0  0  0  0  0
   -1.3280   -3.1080    2.0060 H   0  0  0  0  0  0  0  0  0  0  0  0
  8  9  1  0  0  0  0
  9 10  1  0  0  0  0
  8 26  1  0  0  0  0
  7  8  1  0  0  0  0
 13 26  1  0  0  0  0
 10 12  1  0  0  0  0
 10 11  1  0  0  0  0
 12 13  1  0  0  0  0
  7 25  1  0  0  0  0
 11 25  1  0  0  0  0
 24 25  1  0  0  0  0
  6 24  1  0  0  0  0
  6 23  1  0  0  0  0
 23 28  1  0  0  0  0
 23 31  2  0  0  0  0
 15 16  1  0  0  0  0
 15 27  1  0  0  0  0
 21 28  1  0  0  0  0
 16 17  1  0  0  0  0
 14 27  1  0  0  0  0
  2 32  2  0  0  0  0
 14 17  1  0  0  0  0
 17 18  1  0  0  0  0
 14 29  2  0  0  0  0
  2 21  1  0  0  0  0
  3 21  1  0  0  0  0
  1  2  1  0  0  0  0
  3  4  1  0  0  0  0
  4 22  1  0  0  0  0
  4  5  1  0  0  0  0
  1 19  1  0  0  0  0
 18 19  1  0  0  0  0
 19 20  1  0  0  0  0
 20 30  1  0  0  0  0
  1 33  1  0  0  0  0
  3 34  1  0  0  0  0
  3 35  1  0  0  0  0
  4 36  1  0  0  0  0
  5 37  1  0  0  0  0
  5 38  1  0  0  0  0
  5 39  1  0  0  0  0
  7 40  1  0  0  0  0
  7 41  1  0  0  0  0
  8 42  1  0  0  0  0
  9 43  1  0  0  0  0
  9 44  1  0  0  0  0
 10 45  1  0  0  0  0
 11 46  1  0  0  0  0
 11 47  1  0  0  0  0
 12 48  1  0  0  0  0
 12 49  1  0  0  0  0
 13 50  1  0  0  0  0
 13 51  1  0  0  0  0
 15 52  1  0  0  0  0
 16 53  1  0  0  0  0
 16 54  1  0  0  0  0
 17 55  1  0  0  0  0
 18 56  1  0  0  0  0
 18 57  1  0  0  0  0
 19 58  1  0  0  0  0
 20 59  1  0  0  0  0
 20 60  1  0  0  0  0
 21 61  1  0  0  0  0
 22 62  1  0  0  0  0
 22 63  1  0  0  0  0
 22 64  1  0  0  0  0
 24 65  1  0  0  0  0
 24 66  1  0  0  0  0
 25 67  1  0  0  0  0
 26 68  1  0  0  0  0
 26 69  1  0  0  0  0
 28 70  1  0  0  0  0
 30 71  1  0  0  0  0
 59 72  2  0  0  0  0
 59 73  2  0  0  0  0
 59 74  1  0  0  0  0
 15 75  1  0  0  0  0
 27 76  1  0  0  0  0
 74 77  1  0  0  0  0
M  END
> <OPENEYE_ISO_SMILES>
CC(C)C[C@@H](C(=O)N[C@@H](C[C@@H]1CCNC1=O)[C@H](O)S(=O)(=O)O)NC(=O)OCC2C[C@@H]3CCC[C@@H](C3)C2

> <OPENEYE_INCHI>
InChI=1S/C24H41N3O8S/c1-14(2)8-19(27-24(31)35-13-17-10-15-4-3-5-16(9-15)11-17)22(29)26-20(23(30)36(32,33)34)12-18-6-7-25-21(18)28/h14-20,23,30H,3-13H2,1-2H3,(H,25,28)(H,26,29)(H,27,31)(H,32,33,34)/t15-,16+,17+,18-,19-,20-,23+/m0/s1

> <OPENEYE_INCHIKEY>
PGYROSRJIVXTOE-REFFYEJJSA-N

> <FORMULA>
C24H41N3O8S

$$$$
