Y91
  -OEChem-02242320043D

 77 79  0     1  0  0  0  0  0999 V2000
   -2.0540    2.0580    3.2140 C   0  0  0  0  0  0  0  0  0  0  0  0
   -0.1970    0.1320    0.4490 C   0  0  1  0  0  0  0  0  0  0  0  0
   -0.4340    1.2040    1.5150 C   0  0  0  0  0  0  0  0  0  0  0  0
   -1.7400    0.9090    2.2540 C   0  0  0  0  0  0  0  0  0  0  0  0
    4.5260   -0.7950    0.6730 C   0  0  0  0  0  0  0  0  0  0  0  0
    6.9690   -1.2500    0.6510 C   0  0  0  0  0  0  0  0  0  0  0  0
    8.3610   -0.7630    0.2760 C   0  0  2  0  0  0  0  0  0  0  0  0
    7.5010    1.5200   -0.1400 C   0  0  2  0  0  0  0  0  0  0  0  0
   -1.2230    0.2770   -0.6460 C   0  0  0  0  0  0  0  0  0  0  0  0
   -1.5950   -0.3920    3.0460 C   0  0  0  0  0  0  0  0  0  0  0  0
   -4.0440    1.3540   -1.6680 C   0  0  1  0  0  0  0  0  0  0  0  0
   -3.4730   -0.0570   -1.5180 C   0  0  2  0  0  0  0  0  0  0  0  0
   -4.0560   -2.4640   -1.1890 C   0  0  2  0  0  0  0  0  0  0  0  0
   -3.1080   -2.6440   -0.0240 C   0  0  0  0  0  0  0  0  0  0  0  0
   -5.1060   -3.6380    0.6200 C   0  0  0  0  0  0  0  0  0  0  0  0
   -4.6080   -1.0370   -1.2150 C   0  0  0  0  0  0  0  0  0  0  0  0
   -5.1910   -3.4780   -0.9140 C   0  0  0  0  0  0  0  0  0  0  0  0
    2.1960   -0.3240    0.4610 C   0  0  0  0  0  0  0  0  0  0  0  0
    5.8670   -0.4120    0.0160 C   0  0  0  0  0  0  0  0  0  0  0  0
    8.5220    0.7090    0.6580 C   0  0  0  0  0  0  0  0  0  0  0  0
    6.0880    1.0820    0.2150 C   0  0  0  0  0  0  0  0  0  0  0  0
    7.7790    1.3890   -1.6300 C   0  0  0  0  0  0  0  0  0  0  0  0
    7.8360   -0.0520   -2.1050 C   0  0  0  0  0  0  0  0  0  0  0  0
    8.6560   -0.9580   -1.2030 C   0  0  0  0  0  0  0  0  0  0  0  0
   -3.7200   -3.3090    0.9710 N   0  0  0  0  0  0  0  0  0  0  0  0
   -2.5030   -0.0780   -0.4210 N   0  0  0  0  0  0  0  0  0  0  0  0
    1.1450    0.2930   -0.1150 N   0  0  0  0  0  0  0  0  0  0  0  0
   -1.9620   -2.2470    0.0070 O   0  0  0  0  0  0  0  0  0  0  0  0
   -5.0730    1.3490   -2.6600 O   0  0  0  0  0  0  0  0  0  0  0  0
    3.4430   -0.0970    0.0050 O   0  0  0  0  0  0  0  0  0  0  0  0
    2.0190   -1.0850    1.3910 O   0  0  0  0  0  0  0  0  0  0  0  0
   -0.8960    0.7130   -1.7290 O   0  0  0  0  0  0  0  0  0  0  0  0
   -2.1570    2.9850    2.6500 H   0  0  0  0  0  0  0  0  0  0  0  0
   -2.9850    1.8470    3.7410 H   0  0  0  0  0  0  0  0  0  0  0  0
   -1.2430    2.1600    3.9360 H   0  0  0  0  0  0  0  0  0  0  0  0
   -0.2850   -0.8550    0.9010 H   0  0  0  0  0  0  0  0  0  0  0  0
    0.3940    1.2010    2.2240 H   0  0  0  0  0  0  0  0  0  0  0  0
   -0.4990    2.1820    1.0380 H   0  0  0  0  0  0  0  0  0  0  0  0
   -2.5510    0.8070    1.5330 H   0  0  0  0  0  0  0  0  0  0  0  0
    4.3740   -1.8710    0.5850 H   0  0  0  0  0  0  0  0  0  0  0  0
    4.5440   -0.5160    1.7260 H   0  0  0  0  0  0  0  0  0  0  0  0
    6.8540   -2.2930    0.3320 H   0  0  0  0  0  0  0  0  0  0  0  0
    6.8580   -1.2200    1.7410 H   0  0  0  0  0  0  0  0  0  0  0  0
    9.0970   -1.3440    0.8560 H   0  0  0  0  0  0  0  0  0  0  0  0
    7.6160    2.5790    0.1420 H   0  0  0  0  0  0  0  0  0  0  0  0
   -2.5470   -0.6390    3.5170 H   0  0  0  0  0  0  0  0  0  0  0  0
   -1.3050   -1.1980    2.3710 H   0  0  0  0  0  0  0  0  0  0  0  0
   -0.8310   -0.2680    3.8130 H   0  0  0  0  0  0  0  0  0  0  0  0
   -3.2500    2.0370   -1.9710 H   0  0  0  0  0  0  0  0  0  0  0  0
   -4.7360    1.8980   -0.0820 S   0  0  0  0  0  0  0  0  0  0  0  0
   -2.9790   -0.3490   -2.4450 H   0  0  0  0  0  0  0  0  0  0  0  0
   -3.5550   -2.6950   -2.1290 H   0  0  0  0  0  0  0  0  0  0  0  0
   -5.7930   -2.9490    1.1100 H   0  0  0  0  0  0  0  0  0  0  0  0
   -5.0440   -0.7990   -0.2450 H   0  0  0  0  0  0  0  0  0  0  0  0
   -5.3730   -0.9570   -1.9870 H   0  0  0  0  0  0  0  0  0  0  0  0
   -6.1580   -3.0710   -1.2110 H   0  0  0  0  0  0  0  0  0  0  0  0
   -4.9970   -4.4260   -1.4170 H   0  0  0  0  0  0  0  0  0  0  0  0
    5.7800   -0.6430   -1.0450 H   0  0  0  0  0  0  0  0  0  0  0  0
    8.3380    0.8340    1.7240 H   0  0  0  0  0  0  0  0  0  0  0  0
    9.5290    1.0440    0.4150 H   0  0  0  0  0  0  0  0  0  0  0  0
    5.8850    1.3370    1.2620 H   0  0  0  0  0  0  0  0  0  0  0  0
    5.3730    1.6360   -0.4050 H   0  0  0  0  0  0  0  0  0  0  0  0
    6.9950    1.9200   -2.1870 H   0  0  0  0  0  0  0  0  0  0  0  0
    8.7320    1.8830   -1.8610 H   0  0  0  0  0  0  0  0  0  0  0  0
    6.8380   -0.4540   -2.2610 H   0  0  0  0  0  0  0  0  0  0  0  0
    8.3150   -0.0560   -3.1060 H   0  0  0  0  0  0  0  0  0  0  0  0
    9.7240   -0.7720   -1.3820 H   0  0  0  0  0  0  0  0  0  0  0  0
    8.4610   -2.0050   -1.4710 H   0  0  0  0  0  0  0  0  0  0  0  0
   -2.7830   -0.3470    0.4680 H   0  0  0  0  0  0  0  0  0  0  0  0
    1.2780    0.8430   -0.9030 H   0  0  0  0  0  0  0  0  0  0  0  0
   -5.8130    0.7620   -2.4550 H   0  0  0  0  0  0  0  0  0  0  0  0
   -5.8250    1.0680    0.2980 O   0  0  0  0  0  0  0  0  0  0  0  0
   -3.6960    2.2070    0.8360 O   0  0  0  0  0  0  0  0  0  0  0  0
   -5.3780    3.2430   -0.3880 O   0  0  0  0  0  0  0  0  0  0  0  0
   -5.3330   -4.6650    0.9050 H   0  0  0  0  0  0  0  0  0  0  0  0
   -3.2990   -3.5400    1.8140 H   0  0  0  0  0  0  0  0  0  0  0  0
   -5.7960    3.6630    0.3760 H   0  0  0  0  0  0  0  0  0  0  0  0
  7 20  1  0  0  0  0
  8 20  1  0  0  0  0
  7 24  1  0  0  0  0
  6  7  1  0  0  0  0
 23 24  1  0  0  0  0
  8 22  1  0  0  0  0
  8 21  1  0  0  0  0
 22 23  1  0  0  0  0
  6 19  1  0  0  0  0
 19 21  1  0  0  0  0
  5 19  1  0  0  0  0
  5 30  1  0  0  0  0
 18 30  1  0  0  0  0
 18 27  1  0  0  0  0
 18 31  2  0  0  0  0
 15 17  1  0  0  0  0
 15 25  1  0  0  0  0
  2 27  1  0  0  0  0
 13 17  1  0  0  0  0
 14 25  1  0  0  0  0
  9 32  2  0  0  0  0
  2  9  1  0  0  0  0
  2  3  1  0  0  0  0
 13 14  1  0  0  0  0
 13 16  1  0  0  0  0
 14 28  2  0  0  0  0
  9 26  1  0  0  0  0
  3  4  1  0  0  0  0
  1  4  1  0  0  0  0
  4 10  1  0  0  0  0
 12 26  1  0  0  0  0
 12 16  1  0  0  0  0
 11 12  1  0  0  0  0
 11 29  1  0  0  0  0
  1 33  1  0  0  0  0
  1 34  1  0  0  0  0
  1 35  1  0  0  0  0
  2 36  1  0  0  0  0
  3 37  1  0  0  0  0
  3 38  1  0  0  0  0
  4 39  1  0  0  0  0
  5 40  1  0  0  0  0
  5 41  1  0  0  0  0
  6 42  1  0  0  0  0
  6 43  1  0  0  0  0
  7 44  1  0  0  0  0
  8 45  1  0  0  0  0
 10 46  1  0  0  0  0
 10 47  1  0  0  0  0
 10 48  1  0  0  0  0
 11 49  1  0  0  0  0
 11 50  1  0  0  0  0
 12 51  1  0  0  0  0
 13 52  1  0  0  0  0
 15 53  1  0  0  0  0
 16 54  1  0  0  0  0
 16 55  1  0  0  0  0
 17 56  1  0  0  0  0
 17 57  1  0  0  0  0
 19 58  1  0  0  0  0
 20 59  1  0  0  0  0
 20 60  1  0  0  0  0
 21 61  1  0  0  0  0
 21 62  1  0  0  0  0
 22 63  1  0  0  0  0
 22 64  1  0  0  0  0
 23 65  1  0  0  0  0
 23 66  1  0  0  0  0
 24 67  1  0  0  0  0
 24 68  1  0  0  0  0
 26 69  1  0  0  0  0
 27 70  1  0  0  0  0
 29 71  1  0  0  0  0
 50 72  2  0  0  0  0
 50 73  2  0  0  0  0
 50 74  1  0  0  0  0
 15 75  1  0  0  0  0
 25 76  1  0  0  0  0
 74 77  1  0  0  0  0
M  END
> <OPENEYE_ISO_SMILES>
CC(C)C[C@@H](C(=O)N[C@@H](C[C@@H]1CCNC1=O)[C@@H](O)S(=O)(=O)O)NC(=O)OCC2C[C@@H]3CCC[C@@H](C3)C2

> <OPENEYE_INCHI>
InChI=1S/C24H41N3O8S/c1-14(2)8-19(27-24(31)35-13-17-10-15-4-3-5-16(9-15)11-17)22(29)26-20(23(30)36(32,33)34)12-18-6-7-25-21(18)28/h14-20,23,30H,3-13H2,1-2H3,(H,25,28)(H,26,29)(H,27,31)(H,32,33,34)/t15-,16+,17+,18-,19-,20-,23-/m0/s1

> <OPENEYE_INCHIKEY>
PGYROSRJIVXTOE-UIEASHSYSA-N

> <FORMULA>
C24H41N3O8S

$$$$
