RA3
  -OEChem-02242320033D

 43 46  0     1  0  0  0  0  0999 V2000
    0.3600    1.4400   -2.1470 C   0  0  0  0  0  0  0  0  0  0  0  0
   -1.8670    1.2660   -1.5850 C   0  0  0  0  0  0  0  0  0  0  0  0
   -3.0640   -0.8430    1.1880 C   0  0  0  0  0  0  0  0  0  0  0  0
   -4.3720   -1.0010    1.5910 C   0  0  0  0  0  0  0  0  0  0  0  0
   -5.3920   -0.3230    0.9360 C   0  0  0  0  0  0  0  0  0  0  0  0
   -5.1080    0.5140   -0.1250 C   0  0  0  0  0  0  0  0  0  0  0  0
    1.1170   -0.1340    1.5890 C   0  0  0  0  0  0  0  0  0  0  0  0
    2.9120   -2.8310   -1.1380 C   0  0  0  0  0  0  0  0  0  0  0  0
    2.1880   -1.5860   -0.6210 C   0  0  1  0  0  0  0  0  0  0  0  0
    0.8850   -2.0000    0.0660 C   0  0  0  0  0  0  0  0  0  0  0  0
   -0.1620    0.0600   -0.3760 C   0  0  0  0  0  0  0  0  0  0  0  0
   -1.5130    0.3850   -0.5510 C   0  0  0  0  0  0  0  0  0  0  0  0
   -2.7640   -0.0010    0.1190 C   0  0  0  0  0  0  0  0  0  0  0  0
   -3.7930    0.6850   -0.5450 C   0  0  0  0  0  0  0  0  0  0  0  0
    2.4180    0.2610    0.8860 C   0  0  1  0  0  0  0  0  0  0  0  0
    3.3750    0.8920    1.9000 C   0  0  0  0  0  0  0  0  0  0  0  0
    4.6050    1.3920    1.1870 C   0  0  0  0  0  0  0  0  0  0  0  0
   -6.6710   -0.4850    1.3390 F   0  0  0  0  0  0  0  0  0  0  0  0
    0.2320   -0.8080    0.6270 N   0  0  2  0  0  0  0  0  0  0  0  0
   -3.2310    1.4260   -1.5700 N   0  0  0  0  0  0  0  0  0  0  0  0
   -0.8980    1.7650   -2.3530 N   0  0  0  0  0  0  0  0  0  0  0  0
    0.7340    0.6120   -1.1900 N   0  0  0  0  0  0  0  0  0  0  0  0
    4.0680   -2.4370   -1.8790 O   0  0  0  0  0  0  0  0  0  0  0  0
    3.0220   -0.9050    0.3200 O   0  0  0  0  0  0  0  0  0  0  0  0
    5.5880    1.9870    1.8810 O   0  0  0  0  0  0  0  0  0  0  0  0
    4.7060    1.2580   -0.0090 O   0  0  0  0  0  0  0  0  0  0  0  0
    1.1170    1.8650   -2.7900 H   0  0  0  0  0  0  0  0  0  0  0  0
   -2.2730   -1.3710    1.7000 H   0  0  0  0  0  0  0  0  0  0  0  0
   -4.6050   -1.6540    2.4190 H   0  0  0  0  0  0  0  0  0  0  0  0
   -5.9080    1.0360   -0.6290 H   0  0  0  0  0  0  0  0  0  0  0  0
    1.3400   -0.8110    2.4140 H   0  0  0  0  0  0  0  0  0  0  0  0
    0.6240    0.7590    1.9730 H   0  0  0  0  0  0  0  0  0  0  0  0
    3.2150   -3.4510   -0.2940 H   0  0  0  0  0  0  0  0  0  0  0  0
    2.2420   -3.3990   -1.7830 H   0  0  0  0  0  0  0  0  0  0  0  0
    1.9650   -0.9220   -1.4570 H   0  0  0  0  0  0  0  0  0  0  0  0
    0.2220   -2.4690   -0.6620 H   0  0  0  0  0  0  0  0  0  0  0  0
    1.1040   -2.7060    0.8670 H   0  0  0  0  0  0  0  0  0  0  0  0
    2.2010    0.9790    0.0950 H   0  0  0  0  0  0  0  0  0  0  0  0
    2.8790    1.7260    2.3980 H   0  0  0  0  0  0  0  0  0  0  0  0
    3.6630    0.1460    2.6410 H   0  0  0  0  0  0  0  0  0  0  0  0
   -3.7280    1.9870   -2.1860 H   0  0  0  0  0  0  0  0  0  0  0  0
    4.5770   -3.1780   -2.2380 H   0  0  0  0  0  0  0  0  0  0  0  0
    6.3570    2.2910    1.3800 H   0  0  0  0  0  0  0  0  0  0  0  0
 17 26  2  0  0  0  0
 17 25  1  0  0  0  0
 16 17  1  0  0  0  0
  8 23  1  0  0  0  0
 15 16  1  0  0  0  0
  8  9  1  0  0  0  0
 15 24  1  0  0  0  0
  9 24  1  0  0  0  0
  7 15  1  0  0  0  0
  9 10  1  0  0  0  0
 10 19  1  0  0  0  0
  7 19  1  0  0  0  0
 11 19  1  0  0  0  0
  3  4  2  0  0  0  0
  3 13  1  0  0  0  0
  4  5  1  0  0  0  0
 11 22  2  0  0  0  0
 11 12  1  0  0  0  0
 12 13  1  0  0  0  0
 13 14  2  0  0  0  0
  1 22  1  0  0  0  0
  5 18  1  0  0  0  0
  5  6  2  0  0  0  0
  2 12  2  0  0  0  0
  6 14  1  0  0  0  0
 14 20  1  0  0  0  0
  1 21  2  0  0  0  0
  2 21  1  0  0  0  0
  2 20  1  0  0  0  0
  1 27  1  0  0  0  0
  3 28  1  0  0  0  0
  4 29  1  0  0  0  0
  6 30  1  0  0  0  0
  7 31  1  0  0  0  0
  7 32  1  0  0  0  0
  8 33  1  0  0  0  0
  8 34  1  0  0  0  0
  9 35  1  0  0  0  0
 10 36  1  0  0  0  0
 10 37  1  0  0  0  0
 15 38  1  0  0  0  0
 16 39  1  0  0  0  0
 16 40  1  0  0  0  0
 20 41  1  0  0  0  0
 23 42  1  0  0  0  0
 25 43  1  0  0  0  0
M  END
> <OPENEYE_ISO_SMILES>
c1cc2c(cc1F)[nH]c3c2c(ncn3)[N@@]4C[C@H](O[C@H](C4)CO)CC(=O)O

> <OPENEYE_INCHI>
InChI=1S/C17H17FN4O4/c18-9-1-2-12-13(3-9)21-16-15(12)17(20-8-19-16)22-5-10(4-14(24)25)26-11(6-22)7-23/h1-3,8,10-11,23H,4-7H2,(H,24,25)(H,19,20,21)/t10-,11-/m1/s1

> <OPENEYE_INCHIKEY>
XIVZXMMBMNXYDY-GHMZBOCLSA-N

> <FORMULA>
C17H17FN4O4

$$$$
