QU3
  -OEChem-02242320033D

 38 40  0     0  0  0  0  0  0999 V2000
    4.5190    1.8930   -0.2790 C   0  0  0  0  0  0  0  0  0  0  0  0
    3.5640   -0.1940   -0.0330 C   0  0  0  0  0  0  0  0  0  0  0  0
    3.7010   -1.6830   -0.2000 C   0  0  0  0  0  0  0  0  0  0  0  0
    2.6940   -2.4210    0.6820 C   0  0  0  0  0  0  0  0  0  0  0  0
    0.3450   -2.4620   -0.0410 C   0  0  0  0  0  0  0  0  0  0  0  0
   -3.5550    2.3330   -1.7730 C   0  0  0  0  0  0  0  0  0  0  0  0
   -2.6920   -0.3880   -0.0530 C   0  0  0  0  0  0  0  0  0  0  0  0
   -1.5150   -0.6790    0.5200 C   0  0  0  0  0  0  0  0  0  0  0  0
   -0.9430   -1.7820   -0.2660 C   0  0  0  0  0  0  0  0  0  0  0  0
   -1.8540   -2.0440   -1.2470 C   0  0  0  0  0  0  0  0  0  0  0  0
    2.3850    1.7870    0.5650 C   0  0  0  0  0  0  0  0  0  0  0  0
    2.4290    0.4020    0.4730 C   0  0  0  0  0  0  0  0  0  0  0  0
    1.2350   -0.3920    0.9320 C   0  0  0  0  0  0  0  0  0  0  0  0
   -3.4070    2.2560   -0.3180 N   0  0  0  0  0  0  0  0  0  0  0  0
    1.3780   -1.7870    0.5010 N   0  0  0  0  0  0  0  0  0  0  0  0
    4.5850    0.5770   -0.3930 N   0  0  0  0  0  0  0  0  0  0  0  0
    5.6050    2.6600   -0.6640 N   0  0  0  0  0  0  0  0  0  0  0  0
    3.4360    2.4950    0.1910 N   0  0  0  0  0  0  0  0  0  0  0  0
   -5.0940    0.4860    0.0100 O   0  0  0  0  0  0  0  0  0  0  0  0
   -3.5240    1.0940    1.8570 O   0  0  0  0  0  0  0  0  0  0  0  0
   -2.8870   -1.2080   -1.0980 O   0  0  0  0  0  0  0  0  0  0  0  0
    0.4750   -3.6330   -0.3450 O   0  0  0  0  0  0  0  0  0  0  0  0
   -3.8090    0.8640    0.4840 S   0  0  0  0  0  0  0  0  0  0  0  0
    3.5240   -1.9440   -1.2430 H   0  0  0  0  0  0  0  0  0  0  0  0
    4.7110   -1.9840    0.0790 H   0  0  0  0  0  0  0  0  0  0  0  0
    2.6430   -3.4680    0.3840 H   0  0  0  0  0  0  0  0  0  0  0  0
    2.9970   -2.3490    1.7270 H   0  0  0  0  0  0  0  0  0  0  0  0
   -3.2430    3.3180   -2.1190 H   0  0  0  0  0  0  0  0  0  0  0  0
   -2.9340    1.5700   -2.2420 H   0  0  0  0  0  0  0  0  0  0  0  0
   -4.5980    2.1670   -2.0410 H   0  0  0  0  0  0  0  0  0  0  0  0
   -1.0760   -0.2000    1.3830 H   0  0  0  0  0  0  0  0  0  0  0  0
   -1.7590   -2.8000   -2.0120 H   0  0  0  0  0  0  0  0  0  0  0  0
    1.5040    2.2810    0.9470 H   0  0  0  0  0  0  0  0  0  0  0  0
    1.1690   -0.3530    2.0200 H   0  0  0  0  0  0  0  0  0  0  0  0
    0.3290    0.0310    0.4980 H   0  0  0  0  0  0  0  0  0  0  0  0
   -3.0720    3.0210    0.1770 H   0  0  0  0  0  0  0  0  0  0  0  0
    6.4030    2.2320   -1.0130 H   0  0  0  0  0  0  0  0  0  0  0  0
    5.5690    3.6260   -0.5850 H   0  0  0  0  0  0  0  0  0  0  0  0
  6 14  1  0  0  0  0
 14 23  1  0  0  0  0
 19 23  2  0  0  0  0
 20 23  2  0  0  0  0
  7 23  1  0  0  0  0
  7  8  2  0  0  0  0
  8  9  1  0  0  0  0
 10 21  1  0  0  0  0
  9 10  2  0  0  0  0
  5  9  1  0  0  0  0
  5 22  2  0  0  0  0
  5 15  1  0  0  0  0
  4 15  1  0  0  0  0
  3  4  1  0  0  0  0
  2  3  1  0  0  0  0
  2 16  2  0  0  0  0
  1 16  1  0  0  0  0
  1 17  1  0  0  0  0
  1 18  2  0  0  0  0
 11 18  1  0  0  0  0
 11 12  2  0  0  0  0
 12 13  1  0  0  0  0
  7 21  1  0  0  0  0
 13 15  1  0  0  0  0
  2 12  1  0  0  0  0
  3 24  1  0  0  0  0
  3 25  1  0  0  0  0
  4 26  1  0  0  0  0
  4 27  1  0  0  0  0
  6 28  1  0  0  0  0
  6 29  1  0  0  0  0
  6 30  1  0  0  0  0
  8 31  1  0  0  0  0
 10 32  1  0  0  0  0
 11 33  1  0  0  0  0
 13 34  1  0  0  0  0
 13 35  1  0  0  0  0
 14 36  1  0  0  0  0
 17 37  1  0  0  0  0
 17 38  1  0  0  0  0
M  END
> <OPENEYE_ISO_SMILES>
CNS(=O)(=O)c1cc(co1)C(=O)N2CCc3c(cnc(n3)N)C2

> <OPENEYE_INCHI>
InChI=1S/C13H15N5O4S/c1-15-23(20,21)11-4-8(7-22-11)12(19)18-3-2-10-9(6-18)5-16-13(14)17-10/h4-5,7,15H,2-3,6H2,1H3,(H2,14,16,17)

> <OPENEYE_INCHIKEY>
IPBSEFPXJIGJOL-UHFFFAOYSA-N

> <FORMULA>
C13H15N5O4S

$$$$
