VDJ
  -OEChem-02242320043D

 70 71  0     1  0  0  0  0  0999 V2000
   -0.3090    0.3840    0.5100 C   0  0  1  0  0  0  0  0  0  0  0  0
   -0.7210    1.5000    1.4720 C   0  0  0  0  0  0  0  0  0  0  0  0
   -2.0160    1.1060    2.1850 C   0  0  0  0  0  0  0  0  0  0  0  0
   -1.7530   -0.0980    3.0920 C   0  0  0  0  0  0  0  0  0  0  0  0
   -2.5110    2.2820    3.0300 C   0  0  0  0  0  0  0  0  0  0  0  0
   -1.2780    0.3330   -0.6430 C   0  0  0  0  0  0  0  0  0  0  0  0
   -3.4300   -0.3020   -1.5960 C   0  0  1  0  0  0  0  0  0  0  0  0
   -4.4790   -1.3640   -1.2640 C   0  0  0  0  0  0  0  0  0  0  0  0
   -3.7930   -2.7200   -1.0840 C   0  0  1  0  0  0  0  0  0  0  0  0
   -2.9030   -2.7040    0.1390 C   0  0  0  0  0  0  0  0  0  0  0  0
   -4.8280   -3.8410    0.7670 C   0  0  0  0  0  0  0  0  0  0  0  0
   -4.8380   -3.8180   -0.7780 C   0  0  0  0  0  0  0  0  0  0  0  0
   -4.1260    1.0270   -1.8980 C   0  0  1  0  0  0  0  0  0  0  0  0
   -4.9600    1.6260   -0.4030 S   0  0  0  0  0  0  0  0  0  0  0  0
    8.4250   -0.1120   -0.7070 C   0  0  0  0  0  0  0  0  0  0  0  0
    8.2670    0.4810    0.6940 C   0  0  0  0  0  0  0  0  0  0  0  0
    6.9480    0.0040    1.3050 C   0  0  0  0  0  0  0  0  0  0  0  0
    5.7830    0.4610    0.4240 C   0  0  0  0  0  0  0  0  0  0  0  0
    4.4640   -0.0160    1.0340 C   0  0  0  0  0  0  0  0  0  0  0  0
    2.1140    0.1880    0.6730 C   0  0  0  0  0  0  0  0  0  0  0  0
    5.9410   -0.1320   -0.9780 C   0  0  0  0  0  0  0  0  0  0  0  0
    7.2600    0.3450   -1.5880 C   0  0  0  0  0  0  0  0  0  0  0  0
    9.6310    0.3240   -1.2660 F   0  0  0  0  0  0  0  0  0  0  0  0
    8.4270   -1.5090   -0.6250 F   0  0  0  0  0  0  0  0  0  0  0  0
    1.0390    0.6490    0.0030 N   0  0  0  0  0  0  0  0  0  0  0  0
   -2.5290   -0.1320   -0.4530 N   0  0  0  0  0  0  0  0  0  0  0  0
   -3.5040   -3.3430    1.1570 N   0  0  0  0  0  0  0  0  0  0  0  0
    3.3540    0.5160    0.2650 O   0  0  0  0  0  0  0  0  0  0  0  0
   -1.8050   -2.1910    0.1920 O   0  0  0  0  0  0  0  0  0  0  0  0
   -3.1570    1.9880   -2.3200 O   0  0  0  0  0  0  0  0  0  0  0  0
   -0.9320    0.7090   -1.7430 O   0  0  0  0  0  0  0  0  0  0  0  0
    1.9630   -0.5240    1.6460 O   0  0  0  0  0  0  0  0  0  0  0  0
   -0.3190   -0.5710    1.0350 H   0  0  0  0  0  0  0  0  0  0  0  0
    0.0670    1.6530    2.2090 H   0  0  0  0  0  0  0  0  0  0  0  0
   -0.8800    2.4220    0.9130 H   0  0  0  0  0  0  0  0  0  0  0  0
   -2.7730    0.8460    1.4460 H   0  0  0  0  0  0  0  0  0  0  0  0
   -2.6900   -0.4240    3.5430 H   0  0  0  0  0  0  0  0  0  0  0  0
   -1.3320   -0.9120    2.5010 H   0  0  0  0  0  0  0  0  0  0  0  0
   -1.0510    0.1830    3.8760 H   0  0  0  0  0  0  0  0  0  0  0  0
   -2.6980    3.1400    2.3850 H   0  0  0  0  0  0  0  0  0  0  0  0
   -3.4340    2.0010    3.5380 H   0  0  0  0  0  0  0  0  0  0  0  0
   -1.7530    2.5420    3.7700 H   0  0  0  0  0  0  0  0  0  0  0  0
   -2.8550   -0.6170   -2.4670 H   0  0  0  0  0  0  0  0  0  0  0  0
   -4.9940   -1.0920   -0.3420 H   0  0  0  0  0  0  0  0  0  0  0  0
   -5.2020   -1.4280   -2.0780 H   0  0  0  0  0  0  0  0  0  0  0  0
   -3.2170   -2.9760   -1.9730 H   0  0  0  0  0  0  0  0  0  0  0  0
   -5.6080   -3.1870    1.1580 H   0  0  0  0  0  0  0  0  0  0  0  0
   -4.9710   -4.8580    1.1300 H   0  0  0  0  0  0  0  0  0  0  0  0
   -5.8210   -3.5390   -1.1580 H   0  0  0  0  0  0  0  0  0  0  0  0
   -4.5230   -4.7800   -1.1840 H   0  0  0  0  0  0  0  0  0  0  0  0
   -4.8610    0.8800   -2.6900 H   0  0  0  0  0  0  0  0  0  0  0  0
    9.0970    0.1560    1.3220 H   0  0  0  0  0  0  0  0  0  0  0  0
    8.2650    1.5690    0.6300 H   0  0  0  0  0  0  0  0  0  0  0  0
    6.9500   -1.0840    1.3690 H   0  0  0  0  0  0  0  0  0  0  0  0
    6.8360    0.4270    2.3030 H   0  0  0  0  0  0  0  0  0  0  0  0
    5.7810    1.5490    0.3590 H   0  0  0  0  0  0  0  0  0  0  0  0
    4.4290   -1.1050    1.0170 H   0  0  0  0  0  0  0  0  0  0  0  0
    4.3930    0.3340    2.0640 H   0  0  0  0  0  0  0  0  0  0  0  0
    5.9430   -1.2210   -0.9130 H   0  0  0  0  0  0  0  0  0  0  0  0
    5.1110    0.1930   -1.6050 H   0  0  0  0  0  0  0  0  0  0  0  0
    7.2580    1.4330   -1.6530 H   0  0  0  0  0  0  0  0  0  0  0  0
    7.3720   -0.0780   -2.5870 H   0  0  0  0  0  0  0  0  0  0  0  0
    1.1590    1.1570   -0.8150 H   0  0  0  0  0  0  0  0  0  0  0  0
   -2.8330   -0.3530    0.4420 H   0  0  0  0  0  0  0  0  0  0  0  0
   -3.1130   -3.4590    2.0370 H   0  0  0  0  0  0  0  0  0  0  0  0
   -2.4700    2.1680   -1.6640 H   0  0  0  0  0  0  0  0  0  0  0  0
   -5.6070    2.9370   -0.8290 O   0  0  0  0  0  0  0  0  0  0  0  0
   -6.0570    0.7850   -0.0730 O   0  0  0  0  0  0  0  0  0  0  0  0
   -4.0080    2.0090    0.5800 O   0  0  0  0  0  0  0  0  0  0  0  0
   -6.0970    3.3810   -0.1230 H   0  0  0  0  0  0  0  0  0  0  0  0
 15 23  1  0  0  0  0
 15 24  1  0  0  0  0
 15 22  1  0  0  0  0
 15 16  1  0  0  0  0
 21 22  1  0  0  0  0
 16 17  1  0  0  0  0
 18 21  1  0  0  0  0
 17 18  1  0  0  0  0
 18 19  1  0  0  0  0
 19 28  1  0  0  0  0
 20 28  1  0  0  0  0
 11 12  1  0  0  0  0
 11 27  1  0  0  0  0
 20 25  1  0  0  0  0
 20 32  2  0  0  0  0
  1 25  1  0  0  0  0
  9 12  1  0  0  0  0
  6 31  2  0  0  0  0
 10 27  1  0  0  0  0
  1  6  1  0  0  0  0
  1  2  1  0  0  0  0
  6 26  1  0  0  0  0
  9 10  1  0  0  0  0
  8  9  1  0  0  0  0
  2  3  1  0  0  0  0
 10 29  2  0  0  0  0
  3  4  1  0  0  0  0
  3  5  1  0  0  0  0
  7 26  1  0  0  0  0
  7  8  1  0  0  0  0
  7 13  1  0  0  0  0
 13 30  1  0  0  0  0
 13 14  1  0  0  0  0
  1 33  1  0  0  0  0
  2 34  1  0  0  0  0
  2 35  1  0  0  0  0
  3 36  1  0  0  0  0
  4 37  1  0  0  0  0
  4 38  1  0  0  0  0
  4 39  1  0  0  0  0
  5 40  1  0  0  0  0
  5 41  1  0  0  0  0
  5 42  1  0  0  0  0
  7 43  1  0  0  0  0
  8 44  1  0  0  0  0
  8 45  1  0  0  0  0
  9 46  1  0  0  0  0
 11 47  1  0  0  0  0
 11 48  1  0  0  0  0
 12 49  1  0  0  0  0
 12 50  1  0  0  0  0
 13 51  1  0  0  0  0
 16 52  1  0  0  0  0
 16 53  1  0  0  0  0
 17 54  1  0  0  0  0
 17 55  1  0  0  0  0
 18 56  1  0  0  0  0
 19 57  1  0  0  0  0
 19 58  1  0  0  0  0
 21 59  1  0  0  0  0
 21 60  1  0  0  0  0
 22 61  1  0  0  0  0
 22 62  1  0  0  0  0
 25 63  1  0  0  0  0
 26 64  1  0  0  0  0
 27 65  1  0  0  0  0
 30 66  1  0  0  0  0
 14 67  1  0  0  0  0
 14 68  2  0  0  0  0
 14 69  2  0  0  0  0
 67 70  1  0  0  0  0
M  END
> <OPENEYE_ISO_SMILES>
CC(C)C[C@@H](C(=O)N[C@@H](C[C@@H]1CCNC1=O)[C@H](O)S(=O)(=O)O)NC(=O)OCC2CCC(CC2)(F)F

> <OPENEYE_INCHI>
InChI=1S/C21H35F2N3O8S/c1-12(2)9-15(26-20(30)34-11-13-3-6-21(22,23)7-4-13)18(28)25-16(19(29)35(31,32)33)10-14-5-8-24-17(14)27/h12-16,19,29H,3-11H2,1-2H3,(H,24,27)(H,25,28)(H,26,30)(H,31,32,33)/t14-,15-,16-,19+/m0/s1

> <OPENEYE_INCHIKEY>
BHZBRFONZANPNK-IUVQAAGXSA-N

> <FORMULA>
C21H35F2N3O8S

$$$$
