EJQ
  -OEChem-02242320023D

 31 32  0     0  0  0  0  0  0999 V2000
    2.0240   -1.1170    0.2040 C   0  0  0  0  0  0  0  0  0  0  0  0
    4.7270    1.3490    0.4210 C   0  0  0  0  0  0  0  0  0  0  0  0
    4.3580   -0.8780   -0.4560 C   0  0  0  0  0  0  0  0  0  0  0  0
   -1.9070    0.7450    0.3310 C   0  0  0  0  0  0  0  0  0  0  0  0
   -3.1680    1.2650    0.1170 C   0  0  0  0  0  0  0  0  0  0  0  0
   -4.2350    0.4170   -0.1290 C   0  0  0  0  0  0  0  0  0  0  0  0
   -4.0400   -0.9530   -0.1600 C   0  0  0  0  0  0  0  0  0  0  0  0
   -2.7800   -1.4770    0.0540 C   0  0  0  0  0  0  0  0  0  0  0  0
   -1.7080   -0.6280    0.2950 C   0  0  0  0  0  0  0  0  0  0  0  0
    0.6570   -0.4990    0.0640 C   0  0  0  0  0  0  0  0  0  0  0  0
    3.2390    0.9630    0.5230 C   0  0  0  0  0  0  0  0  0  0  0  0
    5.3500    0.3090   -0.5390 C   0  0  0  0  0  0  0  0  0  0  0  0
   -5.4690    0.9280   -0.3380 F   0  0  0  0  0  0  0  0  0  0  0  0
   -0.4300   -1.1580    0.5120 N   0  0  0  0  0  0  0  0  0  0  0  0
    3.0330   -0.2080   -0.3560 N   0  0  0  0  0  0  0  0  0  0  0  0
    0.5350    0.5920   -0.4520 O   0  0  0  0  0  0  0  0  0  0  0  0
    2.2380   -1.2920    1.2590 H   0  0  0  0  0  0  0  0  0  0  0  0
    2.0510   -2.0650   -0.3330 H   0  0  0  0  0  0  0  0  0  0  0  0
    4.8300    2.3530    0.0090 H   0  0  0  0  0  0  0  0  0  0  0  0
    5.2010    1.2910    1.4000 H   0  0  0  0  0  0  0  0  0  0  0  0
    4.4150   -1.4910   -1.3550 H   0  0  0  0  0  0  0  0  0  0  0  0
    4.5510   -1.4800    0.4330 H   0  0  0  0  0  0  0  0  0  0  0  0
   -1.0750    1.4070    0.5220 H   0  0  0  0  0  0  0  0  0  0  0  0
   -3.3230    2.3340    0.1410 H   0  0  0  0  0  0  0  0  0  0  0  0
   -4.8740   -1.6130   -0.3510 H   0  0  0  0  0  0  0  0  0  0  0  0
   -2.6280   -2.5460    0.0300 H   0  0  0  0  0  0  0  0  0  0  0  0
    2.9930    0.7030    1.5530 H   0  0  0  0  0  0  0  0  0  0  0  0
    2.6170    1.7940    0.1920 H   0  0  0  0  0  0  0  0  0  0  0  0
    5.3970    0.7020   -1.5540 H   0  0  0  0  0  0  0  0  0  0  0  0
    6.3400    0.0090   -0.1950 H   0  0  0  0  0  0  0  0  0  0  0  0
   -0.3270   -1.9990    0.9840 H   0  0  0  0  0  0  0  0  0  0  0  0
  3 12  1  0  0  0  0
  3 15  1  0  0  0  0
  1 10  1  0  0  0  0
  1 15  1  0  0  0  0
 10 14  1  0  0  0  0
  9 14  1  0  0  0  0
  2 12  1  0  0  0  0
 10 16  2  0  0  0  0
  8  9  2  0  0  0  0
  4  9  1  0  0  0  0
  7  8  1  0  0  0  0
 11 15  1  0  0  0  0
  4  5  2  0  0  0  0
  6  7  2  0  0  0  0
  5  6  1  0  0  0  0
  6 13  1  0  0  0  0
  2 11  1  0  0  0  0
  1 17  1  0  0  0  0
  1 18  1  0  0  0  0
  2 19  1  0  0  0  0
  2 20  1  0  0  0  0
  3 21  1  0  0  0  0
  3 22  1  0  0  0  0
  4 23  1  0  0  0  0
  5 24  1  0  0  0  0
  7 25  1  0  0  0  0
  8 26  1  0  0  0  0
 11 27  1  0  0  0  0
 11 28  1  0  0  0  0
 12 29  1  0  0  0  0
 12 30  1  0  0  0  0
 14 31  1  0  0  0  0
M  END
> <OPENEYE_ISO_SMILES>
c1cc(ccc1NC(=O)CN2CCCC2)F

> <OPENEYE_INCHI>
InChI=1S/C12H15FN2O/c13-10-3-5-11(6-4-10)14-12(16)9-15-7-1-2-8-15/h3-6H,1-2,7-9H2,(H,14,16)

> <OPENEYE_INCHIKEY>
XUHKVJOCQINJLO-UHFFFAOYSA-N

> <FORMULA>
C12H15FN2O

$$$$
