@<TRIPOS>MOLECULE
/home/pku/3cl/gett_pdb/7SFB/7SFB_mol2/ligand/7SFB_90U.pdb
 34 37 0 0 0
SMALL
GASTEIGER

@<TRIPOS>ATOM
      1  N1       -19.3740   16.1860  -25.5200 N.am  401  90U401     -0.2392
      2  N3       -18.8670   20.8950  -31.5540 N.am  401  90U401      0.4881
      3  C4       -20.5110   14.6900  -26.9300 C.3   401  90U401      0.0221
      4  C5       -19.3260   13.9020  -27.4100 C.3   401  90U401      0.0037
      5  C6       -18.4120   13.3130  -26.3480 C.3   401  90U401      0.0001
      6  C7       -19.4860   13.0070  -28.6240 C.3   401  90U401      0.0001
      7  C8       -20.5530   15.3140  -25.5500 C.3   401  90U401      0.0972
      8  C10      -19.7890   17.7020  -22.3840 C.3   401  90U401      0.2367
      9  C13      -21.6260   20.1510  -24.6220 C.ar  401  90U401     -0.0002
     10  C15      -20.5270   21.3770  -22.8900 C.ar  401  90U401     -0.0002
     11  C17      -17.7500   19.7060  -28.3570 C.3   401  90U401      0.1410
     12  C20      -16.7210   20.5610  -27.6080 C.3   401  90U401      0.0342
     13  C21      -17.1260   20.7940  -26.1620 C.3   401  90U401      0.0818
     14  C22      -18.2690   21.7900  -25.9690 C.3   401  90U401      0.0326
     15  C24      -16.0030   21.3350  -25.2980 C.2   401  90U401      0.2410
     16  O1       -19.9250   18.3870  -27.1250 O.2   401  90U401     -0.2716
     17  C1       -18.8570   17.7870  -27.2690 C.2   401  90U401      0.2596
     18  C2       -18.6940   16.3440  -26.8020 C.3   401  90U401      0.1564
     19  C3       -19.4070   15.3760  -27.7230 C.3   401  90U401      0.0290
     20  C9       -18.9340   16.8640  -24.4420 C.2   401  90U401      0.4055
     21  O2       -19.7400   16.6480  -23.3870 O.3   401  90U401     -0.4295
     22  C11      -20.3240   18.9760  -22.9640 C.ar  401  90U401      0.0213
     23  C12      -21.1460   18.9640  -24.0820 C.ar  401  90U401     -0.0007
     24  C14      -21.3190   21.3590  -24.0230 C.ar  401  90U401     -0.0000
     25  C16      -20.0230   20.1920  -22.3650 C.ar  401  90U401     -0.0007
     26  O3       -17.9410   17.5770  -24.4540 O.2   401  90U401     -0.2262
     27  N2       -17.7720   18.3430  -27.8030 N.am  401  90U401     -0.2024
     28  C18      -17.5440   19.5740  -29.8640 C.3   401  90U401      0.3143
     29  O4       -18.4970   18.6380  -30.3780 O.3   401  90U401     -0.2051
     30  C19      -17.8070   20.8930  -30.5570 C.2   401  90U401      0.5761
     31  O5       -17.1660   21.8670  -30.3060 O.2   401  90U401     -0.2019
     32  C23      -17.8710   22.6460  -24.7730 C.3   401  90U401      0.1156
     33  N4       -16.4470   22.3910  -24.6190 N.am  401  90U401     -0.2054
     34  O6       -14.8670   20.8520  -25.1970 O.2   401  90U401     -0.2734
@<TRIPOS>UNITY_ATOM_ATTR
2 1
charge 1
@<TRIPOS>BOND
     1     2    30    1
     2    30    31    2
     3    30    28    1
     4    29    28    1
     5    28    11    1
     6     6     4    1
     7    11    27    1
     8    11    12    1
     9    27    17   am
    10    19     4    1
    11    19     3    1
    12    19    18    1
    13    12    13    1
    14     4     3    1
    15     4     5    1
    16    17    16    2
    17    17    18    1
    18     3     7    1
    19    18     1    1
    20    13    14    1
    21    13    15    1
    22    14    32    1
    23     7     1    1
    24     1    20   am
    25    15    34    2
    26    15    33   am
    27    32    33    1
    28     9    23   ar
    29     9    24   ar
    30    26    20    2
    31    20    21    1
    32    23    22   ar
    33    24    10   ar
    34    21     8    1
    35    22     8    1
    36    22    25   ar
    37    10    25   ar
