QZJ
  -OEChem-02242320033D

 69 70  0     1  0  0  0  0  0999 V2000
   -4.0520    0.1080   -1.4540 C   0  0  1  0  0  0  0  0  0  0  0  0
   -4.9690   -0.9610   -0.8570 C   0  0  0  0  0  0  0  0  0  0  0  0
   -4.1950   -2.2730   -0.7130 C   0  0  1  0  0  0  0  0  0  0  0  0
   -3.0960   -2.1300    0.3160 C   0  0  0  0  0  0  0  0  0  0  0  0
    1.7730    0.7560   -0.1900 C   0  0  0  0  0  0  0  0  0  0  0  0
   -0.6370    1.0740   -0.0230 C   0  0  1  0  0  0  0  0  0  0  0  0
   -0.8030    2.3910    0.7380 C   0  0  0  0  0  0  0  0  0  0  0  0
   -2.0820    2.3380    1.5760 C   0  0  0  0  0  0  0  0  0  0  0  0
   -1.9300    1.2800    2.6710 C   0  0  0  0  0  0  0  0  0  0  0  0
   -2.3280    3.7050    2.2180 C   0  0  0  0  0  0  0  0  0  0  0  0
   -1.7960    0.8910   -0.9700 C   0  0  0  0  0  0  0  0  0  0  0  0
   -4.8150   -3.2810    1.3730 C   0  0  0  0  0  0  0  0  0  0  0  0
   -5.1100   -3.3800   -0.1400 C   0  0  0  0  0  0  0  0  0  0  0  0
   -4.8570    1.3830   -1.7140 C   0  0  0  0  0  0  0  0  0  0  0  0
    4.1180    0.3150   -0.2050 C   0  0  0  0  0  0  0  0  0  0  0  0
    4.2810   -1.2050   -0.2580 C   0  0  0  0  0  0  0  0  0  0  0  0
    5.5560   -1.6080    0.4860 C   0  0  0  0  0  0  0  0  0  0  0  0
    6.7640   -0.9430   -0.1760 C   0  0  0  0  0  0  0  0  0  0  0  0
    8.0390   -1.3450    0.5670 C   0  0  0  0  0  0  0  0  0  0  0  0
    9.2580   -0.7830   -0.1680 C   0  0  0  0  0  0  0  0  0  0  0  0
    6.6020    0.5780   -0.1240 C   0  0  0  0  0  0  0  0  0  0  0  0
    5.3270    0.9800   -0.8680 C   0  0  0  0  0  0  0  0  0  0  0  0
    0.6140    1.1040   -0.7840 N   0  0  0  0  0  0  0  0  0  0  0  0
   -2.9660    0.4000   -0.5150 N   0  0  0  0  0  0  0  0  0  0  0  0
   -3.4680   -2.7070    1.4720 N   0  0  0  0  0  0  0  0  0  0  0  0
    1.7930    0.4950    0.9970 O   0  0  0  0  0  0  0  0  0  0  0  0
   -2.0350   -1.5750    0.1260 O   0  0  0  0  0  0  0  0  0  0  0  0
   -5.5010    1.7940   -0.5070 O   0  0  0  0  0  0  0  0  0  0  0  0
   -1.6760    1.1870   -2.1400 O   0  0  0  0  0  0  0  0  0  0  0  0
    2.9080    0.6970   -0.9110 O   0  0  0  0  0  0  0  0  0  0  0  0
   -3.6330   -0.2550   -2.3930 H   0  0  0  0  0  0  0  0  0  0  0  0
   -5.3170   -0.6350    0.1230 H   0  0  0  0  0  0  0  0  0  0  0  0
   -5.8250   -1.1140   -1.5150 H   0  0  0  0  0  0  0  0  0  0  0  0
   -3.7800   -2.5780   -1.6740 H   0  0  0  0  0  0  0  0  0  0  0  0
   -0.6120    0.2460    0.6850 H   0  0  0  0  0  0  0  0  0  0  0  0
    0.0550    2.5420    1.3930 H   0  0  0  0  0  0  0  0  0  0  0  0
   -0.8680    3.2150    0.0280 H   0  0  0  0  0  0  0  0  0  0  0  0
   -2.9250    2.0800    0.9360 H   0  0  0  0  0  0  0  0  0  0  0  0
   -2.8580    1.2090    3.2390 H   0  0  0  0  0  0  0  0  0  0  0  0
   -1.7080    0.3150    2.2160 H   0  0  0  0  0  0  0  0  0  0  0  0
   -1.1170    1.5630    3.3390 H   0  0  0  0  0  0  0  0  0  0  0  0
   -2.4360    4.4580    1.4380 H   0  0  0  0  0  0  0  0  0  0  0  0
   -3.2390    3.6670    2.8150 H   0  0  0  0  0  0  0  0  0  0  0  0
   -1.4840    3.9630    2.8580 H   0  0  0  0  0  0  0  0  0  0  0  0
   -5.5400   -2.6260    1.8570 H   0  0  0  0  0  0  0  0  0  0  0  0
   -4.8380   -4.2710    1.8280 H   0  0  0  0  0  0  0  0  0  0  0  0
   -6.1590   -3.1670   -0.3480 H   0  0  0  0  0  0  0  0  0  0  0  0
   -4.8290   -4.3590   -0.5290 H   0  0  0  0  0  0  0  0  0  0  0  0
   -4.1870    2.1730   -2.0560 H   0  0  0  0  0  0  0  0  0  0  0  0
   -5.6090    1.1890   -2.4790 H   0  0  0  0  0  0  0  0  0  0  0  0
    4.0500    0.6380    0.8340 H   0  0  0  0  0  0  0  0  0  0  0  0
    3.4200   -1.6790    0.2140 H   0  0  0  0  0  0  0  0  0  0  0  0
    4.3490   -1.5280   -1.2960 H   0  0  0  0  0  0  0  0  0  0  0  0
    5.4880   -1.2850    1.5250 H   0  0  0  0  0  0  0  0  0  0  0  0
    5.6720   -2.6910    0.4490 H   0  0  0  0  0  0  0  0  0  0  0  0
    6.8320   -1.2650   -1.2150 H   0  0  0  0  0  0  0  0  0  0  0  0
    8.0100   -0.9460    1.5810 H   0  0  0  0  0  0  0  0  0  0  0  0
    8.1090   -2.4320    0.6070 H   0  0  0  0  0  0  0  0  0  0  0  0
   10.1660   -1.0690    0.3620 H   0  0  0  0  0  0  0  0  0  0  0  0
    9.2870   -1.1820   -1.1810 H   0  0  0  0  0  0  0  0  0  0  0  0
    9.1880    0.3050   -0.2070 H   0  0  0  0  0  0  0  0  0  0  0  0
    6.5340    0.9000    0.9150 H   0  0  0  0  0  0  0  0  0  0  0  0
    7.4630    1.0510   -0.5960 H   0  0  0  0  0  0  0  0  0  0  0  0
    5.3950    0.6580   -1.9070 H   0  0  0  0  0  0  0  0  0  0  0  0
    5.2110    2.0630   -0.8310 H   0  0  0  0  0  0  0  0  0  0  0  0
    0.6090    1.3750   -1.7160 H   0  0  0  0  0  0  0  0  0  0  0  0
   -3.0880    0.2390    0.4330 H   0  0  0  0  0  0  0  0  0  0  0  0
   -2.9160   -2.7400    2.2690 H   0  0  0  0  0  0  0  0  0  0  0  0
   -6.0310    2.5980   -0.5980 H   0  0  0  0  0  0  0  0  0  0  0  0
 12 13  1  0  0  0  0
 12 25  1  0  0  0  0
  3 13  1  0  0  0  0
 14 28  1  0  0  0  0
  4 25  1  0  0  0  0
 11 29  2  0  0  0  0
  1 14  1  0  0  0  0
  1  2  1  0  0  0  0
  1 24  1  0  0  0  0
 16 17  1  0  0  0  0
 17 18  1  0  0  0  0
 15 16  1  0  0  0  0
  2  3  1  0  0  0  0
  3  4  1  0  0  0  0
  4 27  2  0  0  0  0
 18 19  1  0  0  0  0
 18 21  1  0  0  0  0
 19 20  1  0  0  0  0
 11 24  1  0  0  0  0
  6 11  1  0  0  0  0
  5 23  1  0  0  0  0
  6 23  1  0  0  0  0
 15 30  1  0  0  0  0
  5 30  1  0  0  0  0
 15 22  1  0  0  0  0
  6  7  1  0  0  0  0
  7  8  1  0  0  0  0
  5 26  2  0  0  0  0
 21 22  1  0  0  0  0
  8 10  1  0  0  0  0
  8  9  1  0  0  0  0
  1 31  1  0  0  0  0
  2 32  1  0  0  0  0
  2 33  1  0  0  0  0
  3 34  1  0  0  0  0
  6 35  1  0  0  0  0
  7 36  1  0  0  0  0
  7 37  1  0  0  0  0
  8 38  1  0  0  0  0
  9 39  1  0  0  0  0
  9 40  1  0  0  0  0
  9 41  1  0  0  0  0
 10 42  1  0  0  0  0
 10 43  1  0  0  0  0
 10 44  1  0  0  0  0
 12 45  1  0  0  0  0
 12 46  1  0  0  0  0
 13 47  1  0  0  0  0
 13 48  1  0  0  0  0
 14 49  1  0  0  0  0
 14 50  1  0  0  0  0
 15 51  1  0  0  0  0
 16 52  1  0  0  0  0
 16 53  1  0  0  0  0
 17 54  1  0  0  0  0
 17 55  1  0  0  0  0
 18 56  1  0  0  0  0
 19 57  1  0  0  0  0
 19 58  1  0  0  0  0
 20 59  1  0  0  0  0
 20 60  1  0  0  0  0
 20 61  1  0  0  0  0
 21 62  1  0  0  0  0
 21 63  1  0  0  0  0
 22 64  1  0  0  0  0
 22 65  1  0  0  0  0
 23 66  1  0  0  0  0
 24 67  1  0  0  0  0
 25 68  1  0  0  0  0
 28 69  1  0  0  0  0
M  END
> <OPENEYE_ISO_SMILES>
CCC1CCC(CC1)OC(=O)N[C@@H](CC(C)C)C(=O)N[C@@H](C[C@@H]2CCNC2=O)CO

> <OPENEYE_INCHI>
InChI=1S/C22H39N3O5/c1-4-15-5-7-18(8-6-15)30-22(29)25-19(11-14(2)3)21(28)24-17(13-26)12-16-9-10-23-20(16)27/h14-19,26H,4-13H2,1-3H3,(H,23,27)(H,24,28)(H,25,29)/t15-,16-,17-,18-,19-/m0/s1

> <OPENEYE_INCHIKEY>
FKEFWVPHLKQZHR-VMXHOPILSA-N

> <FORMULA>
C22H39N3O5

$$$$
