QRU
  -OEChem-02242320033D

 50 53  0     1  0  0  0  0  0999 V2000
   -3.1070   -1.2090    0.3060 C   0  0  0  0  0  0  0  0  0  0  0  0
   -1.2170   -1.8960    1.6100 C   0  0  0  0  0  0  0  0  0  0  0  0
   -2.5460   -2.0300    1.2790 C   0  0  0  0  0  0  0  0  0  0  0  0
   -0.4310   -0.9360    0.9690 C   0  0  0  0  0  0  0  0  0  0  0  0
    0.9950   -0.7900    1.3210 C   0  0  0  0  0  0  0  0  0  0  0  0
    3.1670    0.2810    1.0510 C   0  0  1  0  0  0  0  0  0  0  0  0
    4.0210   -0.5910    0.1560 C   0  0  0  0  0  0  0  0  0  0  0  0
    4.2620   -1.9540    0.1960 C   0  0  0  0  0  0  0  0  0  0  0  0
   -5.1830   -0.2650   -0.3600 C   0  0  0  0  0  0  0  0  0  0  0  0
    2.4890    2.6900    0.8510 C   0  0  0  0  0  0  0  0  0  0  0  0
    3.6430    1.7240    0.7830 C   0  0  2  0  0  0  0  0  0  0  0  0
    4.1950    1.6290   -0.6550 C   0  0  0  0  0  0  0  0  0  0  0  0
    4.6120    0.1840   -0.8240 C   0  0  0  0  0  0  0  0  0  0  0  0
    5.4450   -0.4090   -1.7650 C   0  0  0  0  0  0  0  0  0  0  0  0
    5.6830   -1.7750   -1.7210 C   0  0  0  0  0  0  0  0  0  0  0  0
    5.0900   -2.5450   -0.7390 C   0  0  0  0  0  0  0  0  0  0  0  0
   -7.2970    0.7900   -0.9520 C   0  0  0  0  0  0  0  0  0  0  0  0
   -8.6610    0.9530   -0.2790 C   0  0  0  0  0  0  0  0  0  0  0  0
   -8.5790    0.5630   -1.7560 C   0  0  0  0  0  0  0  0  0  0  0  0
   -2.3280   -0.2510   -0.3360 C   0  0  0  0  0  0  0  0  0  0  0  0
   -0.9970   -0.1130   -0.0090 C   0  0  0  0  0  0  0  0  0  0  0  0
    1.7520    0.1370    0.7010 N   0  0  0  0  0  0  0  0  0  0  0  0
   -4.4530   -1.3500   -0.0320 N   0  0  0  0  0  0  0  0  0  0  0  0
   -6.5040   -0.3890   -0.5960 N   0  0  0  0  0  0  0  0  0  0  0  0
    1.9110    3.0140   -0.1600 O   0  0  0  0  0  0  0  0  0  0  0  0
    6.0270    0.3500   -2.7300 O   0  0  0  0  0  0  0  0  0  0  0  0
   -4.6490    0.8240   -0.4420 O   0  0  0  0  0  0  0  0  0  0  0  0
    1.4870   -1.5070    2.1710 O   0  0  0  0  0  0  0  0  0  0  0  0
    2.1010    3.1910    2.0340 O   0  0  0  0  0  0  0  0  0  0  0  0
   -0.7810   -2.5340    2.3660 H   0  0  0  0  0  0  0  0  0  0  0  0
   -3.1540   -2.7720    1.7750 H   0  0  0  0  0  0  0  0  0  0  0  0
    3.3260    0.0180    2.0980 H   0  0  0  0  0  0  0  0  0  0  0  0
    3.8000   -2.5590    0.9620 H   0  0  0  0  0  0  0  0  0  0  0  0
    4.4270    2.0100    1.4840 H   0  0  0  0  0  0  0  0  0  0  0  0
    3.4190    1.8860   -1.3760 H   0  0  0  0  0  0  0  0  0  0  0  0
    5.0550    2.2880   -0.7750 H   0  0  0  0  0  0  0  0  0  0  0  0
    6.3300   -2.2350   -2.4520 H   0  0  0  0  0  0  0  0  0  0  0  0
    5.2750   -3.6080   -0.7020 H   0  0  0  0  0  0  0  0  0  0  0  0
   -6.7270    1.6960   -1.1600 H   0  0  0  0  0  0  0  0  0  0  0  0
   -8.9680    0.1840    0.4290 H   0  0  0  0  0  0  0  0  0  0  0  0
   -8.9890    1.9660   -0.0430 H   0  0  0  0  0  0  0  0  0  0  0  0
   -8.8520    1.3190   -2.4920 H   0  0  0  0  0  0  0  0  0  0  0  0
   -8.8320   -0.4640   -2.0200 H   0  0  0  0  0  0  0  0  0  0  0  0
   -2.7660    0.3840   -1.0910 H   0  0  0  0  0  0  0  0  0  0  0  0
   -0.3930    0.6310   -0.5060 H   0  0  0  0  0  0  0  0  0  0  0  0
    1.3590    0.7090    0.0230 H   0  0  0  0  0  0  0  0  0  0  0  0
   -4.8630   -2.2290   -0.0310 H   0  0  0  0  0  0  0  0  0  0  0  0
   -6.9290   -1.2580   -0.5310 H   0  0  0  0  0  0  0  0  0  0  0  0
    6.8900    0.7080   -2.4820 H   0  0  0  0  0  0  0  0  0  0  0  0
    1.3560    3.8070    2.0270 H   0  0  0  0  0  0  0  0  0  0  0  0
 10 25  2  0  0  0  0
 11 12  1  0  0  0  0
 12 13  1  0  0  0  0
 13 14  2  0  0  0  0
 14 26  1  0  0  0  0
 14 15  1  0  0  0  0
 15 16  2  0  0  0  0
  8 16  1  0  0  0  0
  7  8  2  0  0  0  0
  6  7  1  0  0  0  0
  6 22  1  0  0  0  0
  5 22  1  0  0  0  0
  2  4  2  0  0  0  0
  2  3  1  0  0  0  0
  1  3  2  0  0  0  0
  9 23  1  0  0  0  0
 17 24  1  0  0  0  0
 17 18  1  0  0  0  0
 18 19  1  0  0  0  0
  9 24  1  0  0  0  0
  9 27  2  0  0  0  0
  1 23  1  0  0  0  0
  1 20  1  0  0  0  0
 20 21  2  0  0  0  0
  4  5  1  0  0  0  0
  5 28  2  0  0  0  0
 10 11  1  0  0  0  0
 10 29  1  0  0  0  0
  6 11  1  0  0  0  0
  7 13  1  0  0  0  0
  4 21  1  0  0  0  0
 17 19  1  0  0  0  0
  2 30  1  0  0  0  0
  3 31  1  0  0  0  0
  6 32  1  0  0  0  0
  8 33  1  0  0  0  0
 11 34  1  0  0  0  0
 12 35  1  0  0  0  0
 12 36  1  0  0  0  0
 15 37  1  0  0  0  0
 16 38  1  0  0  0  0
 17 39  1  0  0  0  0
 18 40  1  0  0  0  0
 18 41  1  0  0  0  0
 19 42  1  0  0  0  0
 19 43  1  0  0  0  0
 20 44  1  0  0  0  0
 21 45  1  0  0  0  0
 22 46  1  0  0  0  0
 23 47  1  0  0  0  0
 24 48  1  0  0  0  0
 26 49  1  0  0  0  0
 29 50  1  0  0  0  0
M  END
> <OPENEYE_ISO_SMILES>
c1cc2c(c(c1)O)C[C@H]([C@H]2NC(=O)c3ccc(cc3)NC(=O)NC4CC4)C(=O)O

> <OPENEYE_INCHI>
InChI=1S/C21H21N3O5/c25-17-3-1-2-14-15(17)10-16(20(27)28)18(14)24-19(26)11-4-6-12(7-5-11)22-21(29)23-13-8-9-13/h1-7,13,16,18,25H,8-10H2,(H,24,26)(H,27,28)(H2,22,23,29)/t16-,18+/m1/s1

> <OPENEYE_INCHIKEY>
HULQKGAWTDMSSA-AEFFLSMTSA-N

> <FORMULA>
C21H21N3O5

$$$$
