@<TRIPOS>MOLECULE
/home/pku/3cl/gett_pdb/7LMD/7LMD_mol2/ligand/7LMD_Y6A.pdb
 30 34 0 0 0
SMALL
GASTEIGER

@<TRIPOS>ATOM
      1  C10        6.5530    1.3980   18.6060 C.ar  401  Y6A401      0.1217
      2  N11        7.4780    0.8660   17.7250 N.ar  401  Y6A401     -0.1288
      3  C15       12.8660    1.1040   22.5950 C.ar  401  Y6A401      0.0050
      4  O01       10.0360    1.7830   20.6970 O.2   401  Y6A401     -0.2723
      5  C02        9.8440    0.8020   21.3270 C.2   401  Y6A401      0.2545
      6  C03        8.8520   -0.2760   20.8300 C.3   401  Y6A401      0.2141
      7  N04        8.1020    0.2880   19.7180 N.ar  401  Y6A401     -0.2223
      8  C05        6.9540    1.0250   19.8850 C.ar  401  Y6A401      0.0994
      9  C06        6.2160    1.4220   21.0300 C.ar  401  Y6A401      0.0204
     10  C07        5.0530    2.1910   20.8660 C.ar  401  Y6A401      0.0016
     11  C08        4.6350    2.5700   19.5750 C.ar  401  Y6A401      0.0017
     12  C09        5.3740    2.1780   18.4450 C.ar  401  Y6A401      0.0225
     13  N12        8.4150    0.1920   18.4250 N.ar  401  Y6A401     -0.0634
     14  N13       10.5490    0.6280   22.6160 N.am  401  Y6A401     -0.2527
     15  C14       11.5050    1.6290   23.0770 C.3   401  Y6A401      0.1253
     16  C16       13.0310    0.0520   21.6240 C.ar  401  Y6A401      0.0328
     17  S17       14.6050   -0.2310   21.3550 S.2   401  Y6A401     -0.0862
     18  C18       15.2560    0.8540   22.3730 C.ar  401  Y6A401      0.0352
     19  C19       14.2350    1.5950   23.0530 C.ar  401  Y6A401      0.0049
     20  C20       10.3450   -0.5830   23.4360 C.ar  401  Y6A401      0.0542
     21  C21       10.8760   -1.8090   23.0270 C.ar  401  Y6A401      0.0149
     22  C22       10.6870   -2.9510   23.8110 C.ar  401  Y6A401      0.0011
     23  C23        9.9730   -2.8460   24.9980 C.ar  401  Y6A401     -0.0004
     24  C24        9.7670   -4.0840   25.8880 C.2   401  Y6A401      0.0249
     25  C25        8.9450   -4.1580   26.9850 C.3   401  Y6A401      0.1771
     26  N26        9.0660   -5.3710   27.4740 N.2   401  Y6A401     -0.1695
     27  N27        9.9540   -6.1000   26.7260 N.2   401  Y6A401     -0.1510
     28  C28       10.4020   -5.3110   25.7410 C.2   401  Y6A401      0.1194
     29  C29        9.4540   -1.6180   25.4100 C.ar  401  Y6A401      0.0011
     30  C30        9.6360   -0.4820   24.6270 C.ar  401  Y6A401      0.0149
@<TRIPOS>BOND
     1     2    13   ar
     2     2     1   ar
     3    13     7   ar
     4    12     1   ar
     5    12    11   ar
     6     1     8   ar
     7    11    10   ar
     8     7     8   ar
     9     7     6    1
    10     8     9   ar
    11     4     5    2
    12     6     5    1
    13    10     9   ar
    14     5    14   am
    15    17    16   ar
    16    17    18   ar
    17    16     3   ar
    18    18    19   ar
    19     3    19   ar
    20     3    15    1
    21    14    15    1
    22    14    20    1
    23    21    20   ar
    24    21    22   ar
    25    20    30   ar
    26    22    23   ar
    27    30    29   ar
    28    23    29   ar
    29    23    24    1
    30    28    24    2
    31    28    27    1
    32    24    25    1
    33    27    26    2
    34    25    26    1
