WSM
  -OEChem-02242320043D

 29 30  0     0  0  0  0  0  0999 V2000
   -4.5400    1.1590   -1.0680 N   0  0  0  0  0  0  0  0  0  0  0  0
    0.8560    0.3310    0.2750 C   0  0  0  0  0  0  0  0  0  0  0  0
    0.8180    1.6310    0.7520 C   0  0  0  0  0  0  0  0  0  0  0  0
    1.8890    2.4760    0.5280 C   0  0  0  0  0  0  0  0  0  0  0  0
    2.9950    2.0280   -0.1700 C   0  0  0  0  0  0  0  0  0  0  0  0
    3.0390    0.7310   -0.6480 C   0  0  0  0  0  0  0  0  0  0  0  0
    1.3240   -2.3830   -0.0980 C   0  0  0  0  0  0  0  0  0  0  0  0
   -3.7310    0.8450    0.1170 C   0  0  0  0  0  0  0  0  0  0  0  0
   -2.3690    0.3040   -0.3250 C   0  0  0  0  0  0  0  0  0  0  0  0
   -1.5260   -0.0240    0.9090 C   0  0  0  0  0  0  0  0  0  0  0  0
   -0.2220   -0.5410    0.4860 N   0  0  0  0  0  0  0  0  0  0  0  0
    1.9710   -0.1220   -0.4280 C   0  0  0  0  0  0  0  0  0  0  0  0
    1.9980   -1.4010   -0.8890 O   0  0  0  0  0  0  0  0  0  0  0  0
   -0.0400   -1.8660    0.2920 C   0  0  0  0  0  0  0  0  0  0  0  0
   -0.9660   -2.6350    0.4380 O   0  0  0  0  0  0  0  0  0  0  0  0
   -5.4450    1.5180   -0.8030 H   0  0  0  0  0  0  0  0  0  0  0  0
   -4.0580    1.8060   -1.6740 H   0  0  0  0  0  0  0  0  0  0  0  0
   -0.0450    1.9830    1.2970 H   0  0  0  0  0  0  0  0  0  0  0  0
    1.8610    3.4900    0.8990 H   0  0  0  0  0  0  0  0  0  0  0  0
    3.8280    2.6930   -0.3430 H   0  0  0  0  0  0  0  0  0  0  0  0
    3.9040    0.3840   -1.1930 H   0  0  0  0  0  0  0  0  0  0  0  0
    1.2090   -3.2990   -0.6780 H   0  0  0  0  0  0  0  0  0  0  0  0
    1.9090   -2.5920    0.7970 H   0  0  0  0  0  0  0  0  0  0  0  0
   -3.5880    1.7480    0.7100 H   0  0  0  0  0  0  0  0  0  0  0  0
   -4.2420    0.0930    0.7170 H   0  0  0  0  0  0  0  0  0  0  0  0
   -2.5120   -0.5990   -0.9180 H   0  0  0  0  0  0  0  0  0  0  0  0
   -1.8570    1.0560   -0.9260 H   0  0  0  0  0  0  0  0  0  0  0  0
   -1.3830    0.8800    1.5020 H   0  0  0  0  0  0  0  0  0  0  0  0
   -2.0380   -0.7750    1.5090 H   0  0  0  0  0  0  0  0  0  0  0  0
 10 11  1  0  0  0  0
  9 10  1  0  0  0  0
 14 15  2  0  0  0  0
  2 11  1  0  0  0  0
 11 14  1  0  0  0  0
  3  4  2  0  0  0  0
  2  3  1  0  0  0  0
  8  9  1  0  0  0  0
  1  8  1  0  0  0  0
  4  5  1  0  0  0  0
  2 12  2  0  0  0  0
  7 14  1  0  0  0  0
  5  6  2  0  0  0  0
  6 12  1  0  0  0  0
 12 13  1  0  0  0  0
  7 13  1  0  0  0  0
  1 16  1  0  0  0  0
  1 17  1  0  0  0  0
  3 18  1  0  0  0  0
  4 19  1  0  0  0  0
  5 20  1  0  0  0  0
  6 21  1  0  0  0  0
  7 22  1  0  0  0  0
  7 23  1  0  0  0  0
  8 24  1  0  0  0  0
  8 25  1  0  0  0  0
  9 26  1  0  0  0  0
  9 27  1  0  0  0  0
 10 28  1  0  0  0  0
 10 29  1  0  0  0  0
M  END
> <OPENEYE_ISO_SMILES>
c1ccc2c(c1)N(C(=O)CO2)CCCN

> <OPENEYE_INCHI>
InChI=1S/C11H14N2O2/c12-6-3-7-13-9-4-1-2-5-10(9)15-8-11(13)14/h1-2,4-5H,3,6-8,12H2

> <OPENEYE_INCHIKEY>
HKOUXYKBIBMSMY-UHFFFAOYSA-N

> <FORMULA>
C11H14N2O2

$$$$
