I1W
  -OEChem-02242320023D

 93 97  0     1  0  0  0  0  0999 V2000
   -4.1390   -1.2590   -0.7280 C   0  0  2  0  0  0  0  0  0  0  0  0
   -5.3790   -0.7540   -0.0380 C   0  0  0  0  0  0  0  0  0  0  0  0
   -6.9260   -0.6400    1.5910 C   0  0  0  0  0  0  0  0  0  0  0  0
   -7.6060   -0.9230    2.7930 C   0  0  0  0  0  0  0  0  0  0  0  0
   -9.2600    0.7220    2.2700 C   0  0  0  0  0  0  0  0  0  0  0  0
   -8.6170    1.0200    1.0890 C   0  0  0  0  0  0  0  0  0  0  0  0
   -7.4500    0.3430    0.7430 C   0  0  0  0  0  0  0  0  0  0  0  0
   -3.0210   -0.2230   -0.5910 C   0  0  2  0  0  0  0  0  0  0  0  0
   -3.4120    1.0510   -1.3430 C   0  0  0  0  0  0  0  0  0  0  0  0
    3.7760    0.1140    0.7620 C   0  0  2  0  0  0  0  0  0  0  0  0
    2.1640    0.4200    2.6460 C   0  0  0  0  0  0  0  0  0  0  0  0
    4.5600    1.0680    2.9340 C   0  0  0  0  0  0  0  0  0  0  0  0
    6.1760    0.4390    0.4950 C   0  0  0  0  0  0  0  0  0  0  0  0
    8.5930    0.6950    0.3230 C   0  0  0  0  0  0  0  0  0  0  0  0
    8.8510   -0.8120    0.2670 C   0  0  0  0  0  0  0  0  0  0  0  0
    8.7470    1.1860    1.7640 C   0  0  0  0  0  0  0  0  0  0  0  0
    9.6000    1.4190   -0.5730 C   0  0  0  0  0  0  0  0  0  0  0  0
   -4.4190   -1.4780   -2.1120 O   0  0  0  0  0  0  0  0  0  0  0  0
   -5.8000   -1.1840    1.0910 N   0  0  0  0  0  0  0  0  0  0  0  0
   -8.7460   -0.2510    3.1150 C   0  0  0  0  0  0  0  0  0  0  0  0
   -6.3940    0.4680   -0.6600 S   0  0  0  0  0  0  0  0  0  0  0  0
   -2.3750    2.1420   -1.0700 C   0  0  2  0  0  0  0  0  0  0  0  0
   -2.9240    3.5260   -1.4870 C   0  0  0  0  0  0  0  0  0  0  0  0
   -1.6570    4.2130   -2.0440 C   0  0  0  0  0  0  0  0  0  0  0  0
   -0.7800    3.1200   -2.4820 N   0  0  0  0  0  0  0  0  0  0  0  0
   -1.1570    1.9460   -1.9460 C   0  0  0  0  0  0  0  0  0  0  0  0
   -0.6010    0.8850   -2.1360 O   0  0  0  0  0  0  0  0  0  0  0  0
   -1.7820   -0.7640   -1.1570 N   0  0  0  0  0  0  0  0  0  0  0  0
   -0.6860   -0.8890   -0.3830 C   0  0  0  0  0  0  0  0  0  0  0  0
    0.6160   -1.3440   -0.9890 C   0  0  1  0  0  0  0  0  0  0  0  0
    1.7470   -1.0160   -0.0900 N   0  0  0  0  0  0  0  0  0  0  0  0
    2.6100    0.0140   -0.1880 C   0  0  0  0  0  0  0  0  0  0  0  0
    3.3930    1.0040    1.9460 C   0  0  0  0  0  0  0  0  0  0  0  0
    3.0730    2.4130    1.4430 C   0  0  0  0  0  0  0  0  0  0  0  0
    4.9250    0.6970    0.0650 N   0  0  0  0  0  0  0  0  0  0  0  0
    7.2330    0.9750   -0.1460 N   0  0  0  0  0  0  0  0  0  0  0  0
    6.3500   -0.2770    1.4630 O   0  0  0  0  0  0  0  0  0  0  0  0
    2.4490    0.8610   -1.0420 O   0  0  0  0  0  0  0  0  0  0  0  0
    1.7130   -2.0780    0.9430 C   0  0  0  0  0  0  0  0  0  0  0  0
    1.3700   -3.3670    0.1660 C   0  0  1  0  0  0  0  0  0  0  0  0
    2.0400   -4.9960   -1.7670 C   0  0  0  0  0  0  0  0  0  0  0  0
    3.2150   -2.6990   -1.5630 C   0  0  0  0  0  0  0  0  0  0  0  0
    0.6470   -2.8830   -1.1080 C   0  0  2  0  0  0  0  0  0  0  0  0
   -0.7480   -0.6370    0.8020 O   0  0  0  0  0  0  0  0  0  0  0  0
    2.0090   -3.5720   -1.2090 C   0  0  0  0  0  0  0  0  0  0  0  0
   -3.8230   -2.1970   -0.2690 H   0  0  0  0  0  0  0  0  0  0  0  0
   -7.2200   -1.6780    3.4620 H   0  0  0  0  0  0  0  0  0  0  0  0
  -10.1640    1.2470    2.5390 H   0  0  0  0  0  0  0  0  0  0  0  0
   -9.0170    1.7770    0.4320 H   0  0  0  0  0  0  0  0  0  0  0  0
   -2.8680    0.0090    0.4630 H   0  0  0  0  0  0  0  0  0  0  0  0
   -3.4490    0.8450   -2.4120 H   0  0  0  0  0  0  0  0  0  0  0  0
   -4.3910    1.3870   -1.0030 H   0  0  0  0  0  0  0  0  0  0  0  0
    4.0360   -0.8810    1.1230 H   0  0  0  0  0  0  0  0  0  0  0  0
    2.3920   -0.5840    3.0030 H   0  0  0  0  0  0  0  0  0  0  0  0
    1.8930    1.0530    3.4910 H   0  0  0  0  0  0  0  0  0  0  0  0
    1.3330    0.3760    1.9430 H   0  0  0  0  0  0  0  0  0  0  0  0
    5.4360    1.4830    2.4350 H   0  0  0  0  0  0  0  0  0  0  0  0
    4.2880    1.7010    3.7780 H   0  0  0  0  0  0  0  0  0  0  0  0
    4.7890    0.0640    3.2920 H   0  0  0  0  0  0  0  0  0  0  0  0
    8.1340   -1.3270    0.9050 H   0  0  0  0  0  0  0  0  0  0  0  0
    8.7420   -1.1610   -0.7600 H   0  0  0  0  0  0  0  0  0  0  0  0
    9.8630   -1.0200    0.6150 H   0  0  0  0  0  0  0  0  0  0  0  0
    9.7590    0.9780    2.1120 H   0  0  0  0  0  0  0  0  0  0  0  0
    8.5630    2.2590    1.8040 H   0  0  0  0  0  0  0  0  0  0  0  0
    8.0300    0.6700    2.4020 H   0  0  0  0  0  0  0  0  0  0  0  0
    9.4900    1.0700   -1.6000 H   0  0  0  0  0  0  0  0  0  0  0  0
    9.4160    2.4930   -0.5330 H   0  0  0  0  0  0  0  0  0  0  0  0
   10.6120    1.2110   -0.2250 H   0  0  0  0  0  0  0  0  0  0  0  0
   -4.7060   -0.6840   -2.5850 H   0  0  0  0  0  0  0  0  0  0  0  0
   -9.2570   -0.4790    4.0390 H   0  0  0  0  0  0  0  0  0  0  0  0
   -2.0930    2.1450   -0.0170 H   0  0  0  0  0  0  0  0  0  0  0  0
   -3.6860    3.4270   -2.2600 H   0  0  0  0  0  0  0  0  0  0  0  0
   -3.3130    4.0680   -0.6250 H   0  0  0  0  0  0  0  0  0  0  0  0
   -1.9140    4.8510   -2.8890 H   0  0  0  0  0  0  0  0  0  0  0  0
   -1.1700    4.7970   -1.2630 H   0  0  0  0  0  0  0  0  0  0  0  0
   -0.0260    3.2300   -3.0820 H   0  0  0  0  0  0  0  0  0  0  0  0
   -1.7510   -1.0310   -2.0890 H   0  0  0  0  0  0  0  0  0  0  0  0
    0.7620   -0.8820   -1.9660 H   0  0  0  0  0  0  0  0  0  0  0  0
    2.1770    2.3820    0.8240 H   0  0  0  0  0  0  0  0  0  0  0  0
    2.9040    3.0720    2.2950 H   0  0  0  0  0  0  0  0  0  0  0  0
    3.9100    2.7870    0.8540 H   0  0  0  0  0  0  0  0  0  0  0  0
    4.7860    1.2680   -0.7070 H   0  0  0  0  0  0  0  0  0  0  0  0
    7.0940    1.5460   -0.9170 H   0  0  0  0  0  0  0  0  0  0  0  0
    2.6870   -2.1720    1.4240 H   0  0  0  0  0  0  0  0  0  0  0  0
    0.9420   -1.8640    1.6830 H   0  0  0  0  0  0  0  0  0  0  0  0
    1.0140   -4.2230    0.7390 H   0  0  0  0  0  0  0  0  0  0  0  0
    1.4430   -5.6490   -1.1300 H   0  0  0  0  0  0  0  0  0  0  0  0
    1.6290   -4.9990   -2.7770 H   0  0  0  0  0  0  0  0  0  0  0  0
    3.0690   -5.3540   -1.7920 H   0  0  0  0  0  0  0  0  0  0  0  0
    4.1100   -3.3190   -1.6110 H   0  0  0  0  0  0  0  0  0  0  0  0
    3.0490   -2.2250   -2.5310 H   0  0  0  0  0  0  0  0  0  0  0  0
    3.3450   -1.9310   -0.8000 H   0  0  0  0  0  0  0  0  0  0  0  0
   -0.2490   -3.3780   -1.4840 H   0  0  0  0  0  0  0  0  0  0  0  0
  1  2  1  0  0  0  0
  1  8  1  0  0  0  0
  1 18  1  0  0  0  0
  2 19  2  0  0  0  0
  2 21  1  0  0  0  0
  3  4  2  0  0  0  0
  3  7  1  0  0  0  0
  3 19  1  0  0  0  0
  4 20  1  0  0  0  0
  5  6  1  0  0  0  0
  5 20  2  0  0  0  0
  6  7  2  0  0  0  0
  7 21  1  0  0  0  0
  8  9  1  0  0  0  0
  8 28  1  0  0  0  0
  9 22  1  0  0  0  0
 10 32  1  0  0  0  0
 10 33  1  0  0  0  0
 10 35  1  0  0  0  0
 11 33  1  0  0  0  0
 12 33  1  0  0  0  0
 13 35  1  0  0  0  0
 13 36  1  0  0  0  0
 13 37  2  0  0  0  0
 14 15  1  0  0  0  0
 14 16  1  0  0  0  0
 14 17  1  0  0  0  0
 14 36  1  0  0  0  0
 22 23  1  0  0  0  0
 22 26  1  0  0  0  0
 23 24  1  0  0  0  0
 24 25  1  0  0  0  0
 25 26  1  0  0  0  0
 26 27  2  0  0  0  0
 28 29  1  0  0  0  0
 29 30  1  0  0  0  0
 29 44  2  0  0  0  0
 30 31  1  0  0  0  0
 30 43  1  0  0  0  0
 31 32  1  0  0  0  0
 31 39  1  0  0  0  0
 32 38  2  0  0  0  0
 33 34  1  0  0  0  0
 39 40  1  0  0  0  0
 40 43  1  0  0  0  0
 40 45  1  0  0  0  0
 41 45  1  0  0  0  0
 42 45  1  0  0  0  0
 43 45  1  0  0  0  0
  1 46  1  0  0  0  0
  4 47  1  0  0  0  0
  5 48  1  0  0  0  0
  6 49  1  0  0  0  0
  8 50  1  0  0  0  0
  9 51  1  0  0  0  0
  9 52  1  0  0  0  0
 10 53  1  0  0  0  0
 11 54  1  0  0  0  0
 11 55  1  0  0  0  0
 11 56  1  0  0  0  0
 12 57  1  0  0  0  0
 12 58  1  0  0  0  0
 12 59  1  0  0  0  0
 15 60  1  0  0  0  0
 15 61  1  0  0  0  0
 15 62  1  0  0  0  0
 16 63  1  0  0  0  0
 16 64  1  0  0  0  0
 16 65  1  0  0  0  0
 17 66  1  0  0  0  0
 17 67  1  0  0  0  0
 17 68  1  0  0  0  0
 18 69  1  0  0  0  0
 20 70  1  0  0  0  0
 22 71  1  0  0  0  0
 23 72  1  0  0  0  0
 23 73  1  0  0  0  0
 24 74  1  0  0  0  0
 24 75  1  0  0  0  0
 25 76  1  0  0  0  0
 28 77  1  0  0  0  0
 30 78  1  0  0  0  0
 34 79  1  0  0  0  0
 34 80  1  0  0  0  0
 34 81  1  0  0  0  0
 35 82  1  0  0  0  0
 36 83  1  0  0  0  0
 39 84  1  0  0  0  0
 39 85  1  0  0  0  0
 40 86  1  0  0  0  0
 41 87  1  0  0  0  0
 41 88  1  0  0  0  0
 41 89  1  0  0  0  0
 42 90  1  0  0  0  0
 42 91  1  0  0  0  0
 42 92  1  0  0  0  0
 43 93  1  0  0  0  0
M  END
> <OPENEYE_ISO_SMILES>
CC1([C@@H]2[C@H]1[C@H](N(C2)C(=O)[C@H](C(C)(C)C)NC(=O)NC(C)(C)C)C(=O)N[C@@H](C[C@@H]3CCNC3=O)[C@@H](c4nc5ccccc5s4)O)C

> <OPENEYE_INCHI>
InChI=1S/C33H48N6O5S/c1-31(2,3)25(37-30(44)38-32(4,5)6)29(43)39-16-18-22(33(18,7)8)23(39)27(42)35-20(15-17-13-14-34-26(17)41)24(40)28-36-19-11-9-10-12-21(19)45-28/h9-12,17-18,20,22-25,40H,13-16H2,1-8H3,(H,34,41)(H,35,42)(H2,37,38,44)/t17-,18-,20-,22-,23-,24-,25+/m0/s1

> <OPENEYE_INCHIKEY>
ARSJHDLARMCGPB-KUGIMXMOSA-N

> <FORMULA>
C33H48N6O5S

$$$$
