@<TRIPOS>MOLECULE
/home/pku/3cl/gett_pdb/5SRS/5SRS_mol2/ligand/5SRS_RFI.pdb
 41 45 0 0 0
SMALL
GASTEIGER

@<TRIPOS>ATOM
      1  C17      -44.2550  -32.7430    2.2470 C.2   201  RFI201      0.4033
      2  C15      -45.0330  -34.0270    0.4790 C.3   201  RFI201      0.1098
      3  C14      -44.5900  -32.6760   -0.0690 C.3   201  RFI201      0.0525
      4  C12      -44.0150  -30.3980    0.9680 C.3   201  RFI201      0.0432
      5  C11      -45.4060  -29.6740    0.6290 C.3   201  RFI201     -0.0201
      6  C10      -46.0090  -29.6530    1.8070 C.3   201  RFI201      0.0032
      7  C19      -43.6280  -29.8420    2.1210 C.3   201  RFI201      0.0203
      8  C02      -50.6320  -28.9250    4.8580 C.ar  201  RFI201      0.1254
      9  C03      -49.8350  -29.0040    6.0050 C.ar  201  RFI201     -0.0025
     10  C04      -48.4150  -29.0860    5.9000 C.ar  201  RFI201      0.0510
     11  C06      -46.2260  -29.2300    6.3460 C.ar  201  RFI201      0.1296
     12  C07      -46.3020  -29.1880    4.9860 C.ar  201  RFI201      0.0474
     13  C08      -45.0450  -29.2510    4.2870 C.3   201  RFI201      0.1881
     14  C21      -43.9610  -29.3680    6.2430 C.2   201  RFI201      0.1048
     15  C23      -47.7810  -29.0920    4.6730 C.ar  201  RFI201      0.0087
     16  C24      -48.6500  -29.0060    3.4540 C.ar  201  RFI201     -0.0494
     17  C25      -49.9960  -28.9250    3.5620 C.ar  201  RFI201     -0.0258
     18  F01      -51.9960  -28.8450    4.9660 F     201  RFI201     -0.2054
     19  N05      -47.4990  -29.1700    6.8830 N.ar  201  RFI201     -0.3411
     20  N09      -44.9040  -29.2350    2.8060 N.3   201  RFI201     -0.2696
     21  N13      -44.2710  -31.8580    1.0430 N.am  201  RFI201     -0.2599
     22  N20      -43.9610  -29.3310    4.9310 N.2   201  RFI201     -0.2431
     23  N22      -45.0740  -29.3200    6.9260 N.pl3 201  RFI201     -0.1859
     24  O16      -44.5370  -34.1140    1.8020 O.3   201  RFI201     -0.4487
     25  O18      -44.0630  -32.4300    3.3470 O.2   201  RFI201     -0.2262
     26 H151      -44.4700  -34.8020   -0.1070 H     201  RFI201      0.0714
     27 H152      -46.0740  -34.0000    0.5580 H     201  RFI201      0.0714
     28 H142      -45.4600  -32.2410   -0.5960 H     201  RFI201      0.0499
     29 H141      -43.5770  -32.8590   -0.6150 H     201  RFI201      0.0499
     30 H121      -43.2850  -30.1670    0.1770 H     201  RFI201      0.0514
     31 H112      -46.0190  -30.2650   -0.0980 H     201  RFI201      0.0296
     32 H111      -45.2360  -28.5670    0.2450 H     201  RFI201      0.0296
     33 H102      -46.4550  -30.6120    2.0820 H     201  RFI201      0.0428
     34 H101      -46.7430  -28.8770    1.7540 H     201  RFI201      0.0428
     35 H191      -42.9430  -29.0340    1.8960 H     201  RFI201      0.0446
     36 H192      -43.1210  -30.5560    2.7910 H     201  RFI201      0.0446
     37 H031      -50.2990  -29.0090    7.0010 H     201  RFI201      0.0667
     38 H211      -43.0050  -29.4310    6.7860 H     201  RFI201      0.1015
     39 H241      -48.2470  -28.9960    2.4840 H     201  RFI201      0.0625
     40 H251      -50.5700  -28.8640    2.6980 H     201  RFI201      0.0646
     41 H051      -47.7050  -29.1880    7.8720 H     201  RFI201      0.1671
@<TRIPOS>BOND
     1    29     3    1
     2    28     3    1
     3    26     2    1
     4    31     5    1
     5     3     2    1
     6     3    21    1
     7    30     4    1
     8    32     5    1
     9     2    27    1
    10     2    24    1
    11     5     4    1
    12     5     6    1
    13     4    21    1
    14     4     7    1
    15    21     1   am
    16    34     6    1
    17    24     1    1
    18     6    33    1
    19     6    20    1
    20    35     7    1
    21     7    36    1
    22     7    20    1
    23     1    25    2
    24    39    16    1
    25    40    17    1
    26    20    13    1
    27    16    17   ar
    28    16    15   ar
    29    17     8   ar
    30    13    22    1
    31    13    12    1
    32    15    12   ar
    33    15    10   ar
    34     8    18    1
    35     8     9   ar
    36    22    14    2
    37    12    11   ar
    38    10     9   ar
    39    10    19   ar
    40     9    37    1
    41    14    38    1
    42    14    23    1
    43    11    19   ar
    44    11    23    1
    45    19    41    1
