RSR
  -OEChem-02242320043D

 44 48  0     1  0  0  0  0  0999 V2000
   -2.8030   -2.2160   -1.4480 C   0  0  0  0  0  0  0  0  0  0  0  0
    0.1160    4.6430   -0.2400 N   0  0  0  0  0  0  0  0  0  0  0  0
   -4.0320   -0.4850   -1.5460 C   0  0  0  0  0  0  0  0  0  0  0  0
   -3.6600   -1.5830   -2.5590 C   0  0  0  0  0  0  0  0  0  0  0  0
   -4.0530   -0.1350    1.1640 C   0  0  0  0  0  0  0  0  0  0  0  0
   -1.5600    0.1210    1.0920 C   0  0  0  0  0  0  0  0  0  0  0  0
   -2.7650   -0.7640    0.6980 C   0  0  2  0  0  0  0  0  0  0  0  0
   -4.1500    1.0670    1.2270 O   0  0  0  0  0  0  0  0  0  0  0  0
   -2.7210   -0.8190   -0.8340 C   0  0  0  0  0  0  0  0  0  0  0  0
   -1.5060    0.0180   -1.2550 C   0  0  0  0  0  0  0  0  0  0  0  0
    0.2520    1.0850   -0.0840 C   0  0  0  0  0  0  0  0  0  0  0  0
    2.2500   -1.6810    0.0870 C   0  0  0  0  0  0  0  0  0  0  0  0
    3.3020   -2.5680    0.1540 C   0  0  0  0  0  0  0  0  0  0  0  0
    4.6100   -2.1020    0.1710 C   0  0  0  0  0  0  0  0  0  0  0  0
    4.8710   -0.7470    0.1220 C   0  0  0  0  0  0  0  0  0  0  0  0
    3.8210    0.1620    0.0540 C   0  0  0  0  0  0  0  0  0  0  0  0
    2.5000   -0.3120    0.0370 C   0  0  0  0  0  0  0  0  0  0  0  0
    1.6370    0.8780   -0.0370 C   0  0  0  0  0  0  0  0  0  0  0  0
    2.4900    1.9920   -0.0600 C   0  0  0  0  0  0  0  0  0  0  0  0
    0.6350    3.3620   -0.1710 C   0  0  0  0  0  0  0  0  0  0  0  0
   -5.0920   -0.9120    1.5090 O   0  0  0  0  0  0  0  0  0  0  0  0
    5.6340   -2.9800    0.2360 F   0  0  0  0  0  0  0  0  0  0  0  0
   -2.6270   -2.0480    1.2360 F   0  0  0  0  0  0  0  0  0  0  0  0
    1.9480    3.2080   -0.1270 N   0  0  0  0  0  0  0  0  0  0  0  0
    3.7880    1.5460   -0.0050 N   0  0  0  0  0  0  0  0  0  0  0  0
   -0.6240    0.0150   -0.0580 N   0  0  1  0  0  0  0  0  0  0  0  0
   -0.2020    2.3330   -0.1490 N   0  0  0  0  0  0  0  0  0  0  0  0
   -3.3460   -2.9330   -0.8320 H   0  0  0  0  0  0  0  0  0  0  0  0
   -1.8440   -2.5970   -1.7980 H   0  0  0  0  0  0  0  0  0  0  0  0
    0.7120    5.4080   -0.2550 H   0  0  0  0  0  0  0  0  0  0  0  0
   -0.8440    4.7760   -0.2730 H   0  0  0  0  0  0  0  0  0  0  0  0
   -4.0530    0.5170   -1.9750 H   0  0  0  0  0  0  0  0  0  0  0  0
   -4.9210   -0.7140   -0.9590 H   0  0  0  0  0  0  0  0  0  0  0  0
   -3.0770   -1.2180   -3.4050 H   0  0  0  0  0  0  0  0  0  0  0  0
   -4.5060   -2.2010   -2.8630 H   0  0  0  0  0  0  0  0  0  0  0  0
   -1.8770    1.1550    1.2300 H   0  0  0  0  0  0  0  0  0  0  0  0
   -1.0910   -0.2560    2.0000 H   0  0  0  0  0  0  0  0  0  0  0  0
   -1.0000   -0.4440   -2.1030 H   0  0  0  0  0  0  0  0  0  0  0  0
   -1.8110    1.0360   -1.5010 H   0  0  0  0  0  0  0  0  0  0  0  0
    1.2340   -2.0460    0.0740 H   0  0  0  0  0  0  0  0  0  0  0  0
    3.1090   -3.6300    0.1930 H   0  0  0  0  0  0  0  0  0  0  0  0
    5.8910   -0.3940    0.1350 H   0  0  0  0  0  0  0  0  0  0  0  0
   -5.8970   -0.4630    1.8020 H   0  0  0  0  0  0  0  0  0  0  0  0
    4.5710    2.1190   -0.0070 H   0  0  0  0  0  0  0  0  0  0  0  0
  5  8  2  0  0  0  0
  5 21  1  0  0  0  0
  5  7  1  0  0  0  0
  1  4  1  0  0  0  0
  1  9  1  0  0  0  0
  7 23  1  0  0  0  0
  3  4  1  0  0  0  0
  7  9  1  0  0  0  0
  6  7  1  0  0  0  0
  3  9  1  0  0  0  0
  9 10  1  0  0  0  0
  6 26  1  0  0  0  0
 10 26  1  0  0  0  0
 11 26  1  0  0  0  0
 12 13  2  0  0  0  0
 12 17  1  0  0  0  0
 13 14  1  0  0  0  0
 11 27  2  0  0  0  0
 11 18  1  0  0  0  0
 17 18  1  0  0  0  0
 16 17  2  0  0  0  0
 20 27  1  0  0  0  0
 18 19  2  0  0  0  0
 14 22  1  0  0  0  0
 14 15  2  0  0  0  0
 15 16  1  0  0  0  0
 16 25  1  0  0  0  0
  2 20  1  0  0  0  0
 20 24  2  0  0  0  0
 19 25  1  0  0  0  0
 19 24  1  0  0  0  0
  1 28  1  0  0  0  0
  1 29  1  0  0  0  0
  2 30  1  0  0  0  0
  2 31  1  0  0  0  0
  3 32  1  0  0  0  0
  3 33  1  0  0  0  0
  4 34  1  0  0  0  0
  4 35  1  0  0  0  0
  6 36  1  0  0  0  0
  6 37  1  0  0  0  0
 10 38  1  0  0  0  0
 10 39  1  0  0  0  0
 12 40  1  0  0  0  0
 13 41  1  0  0  0  0
 15 42  1  0  0  0  0
 21 43  1  0  0  0  0
 25 44  1  0  0  0  0
M  END
> <OPENEYE_ISO_SMILES>
c1cc2c(cc1F)[nH]c3c2c(nc(n3)N)[N@]4C[C@](C5(C4)CCC5)(C(=O)O)F

> <OPENEYE_INCHI>
InChI=1S/C18H17F2N5O2/c19-9-2-3-10-11(6-9)22-13-12(10)14(24-16(21)23-13)25-7-17(4-1-5-17)18(20,8-25)15(26)27/h2-3,6H,1,4-5,7-8H2,(H,26,27)(H3,21,22,23,24)/t18-/m1/s1

> <OPENEYE_INCHIKEY>
CDBGIGRGQZLBAF-GOSISDBHSA-N

> <FORMULA>
C18H17F2N5O2

$$$$
