RT5
  -OEChem-02242320043D

 44 48  0     1  0  0  0  0  0999 V2000
   -0.8810    3.4480   -0.0650 C   0  0  0  0  0  0  0  0  0  0  0  0
   -2.5980    1.9040   -0.0570 C   0  0  0  0  0  0  0  0  0  0  0  0
   -1.6410    0.8780    0.0020 C   0  0  0  0  0  0  0  0  0  0  0  0
    2.6540   -1.9880   -1.9970 O   0  0  0  0  0  0  0  0  0  0  0  0
    4.6950   -1.8010   -1.1720 O   0  0  0  0  0  0  0  0  0  0  0  0
   -0.2830    1.2190    0.0260 C   0  0  0  0  0  0  0  0  0  0  0  0
    1.5710    0.4310    1.2670 C   0  0  0  0  0  0  0  0  0  0  0  0
    2.8470   -0.3360    0.8810 C   0  0  0  0  0  0  0  0  0  0  0  0
    2.9900   -0.1010   -0.6280 C   0  0  2  0  0  0  0  0  0  0  0  0
    1.5770    0.3000   -1.1000 C   0  0  0  0  0  0  0  0  0  0  0  0
    3.4340   -1.3660   -1.3160 C   0  0  0  0  0  0  0  0  0  0  0  0
    2.9200   -1.7860    1.3450 C   0  0  0  0  0  0  0  0  0  0  0  0
    3.6690   -1.2580    2.5830 C   0  0  0  0  0  0  0  0  0  0  0  0
    4.0820   -0.0460    1.7270 C   0  0  0  0  0  0  0  0  0  0  0  0
   -2.3860   -0.3900    0.0260 C   0  0  0  0  0  0  0  0  0  0  0  0
   -3.7470   -0.0480   -0.0210 C   0  0  0  0  0  0  0  0  0  0  0  0
   -4.7040   -1.0570   -0.0120 C   0  0  0  0  0  0  0  0  0  0  0  0
   -4.3130   -2.3800    0.0430 C   0  0  0  0  0  0  0  0  0  0  0  0
   -2.9670   -2.7160    0.0890 C   0  0  0  0  0  0  0  0  0  0  0  0
   -2.0050   -1.7290    0.0810 C   0  0  0  0  0  0  0  0  0  0  0  0
   -5.2480   -3.3550    0.0510 F   0  0  0  0  0  0  0  0  0  0  0  0
    3.9000    0.9320   -0.8760 F   0  0  0  0  0  0  0  0  0  0  0  0
   -0.4870    4.7750   -0.1060 N   0  0  0  0  0  0  0  0  0  0  0  0
   -2.1740    3.1670   -0.0890 N   0  0  0  0  0  0  0  0  0  0  0  0
   -3.8470    1.3330   -0.0700 N   0  0  0  0  0  0  0  0  0  0  0  0
    0.6900    0.2380    0.0840 N   0  0  2  0  0  0  0  0  0  0  0  0
    0.0500    2.5070   -0.0090 N   0  0  0  0  0  0  0  0  0  0  0  0
    4.9330   -2.6180   -1.6330 H   0  0  0  0  0  0  0  0  0  0  0  0
    1.1180   -0.0020    2.1590 H   0  0  0  0  0  0  0  0  0  0  0  0
    1.7880    1.4880    1.4180 H   0  0  0  0  0  0  0  0  0  0  0  0
    1.5920    1.3140   -1.4990 H   0  0  0  0  0  0  0  0  0  0  0  0
    1.2300   -0.3950   -1.8640 H   0  0  0  0  0  0  0  0  0  0  0  0
    1.9480   -2.2220    1.5750 H   0  0  0  0  0  0  0  0  0  0  0  0
    3.5280   -2.4220    0.7020 H   0  0  0  0  0  0  0  0  0  0  0  0
    3.0110   -1.0020    3.4140 H   0  0  0  0  0  0  0  0  0  0  0  0
    4.5070   -1.8850    2.8860 H   0  0  0  0  0  0  0  0  0  0  0  0
    5.0210   -0.1870    1.1930 H   0  0  0  0  0  0  0  0  0  0  0  0
    4.0340    0.9030    2.2610 H   0  0  0  0  0  0  0  0  0  0  0  0
   -5.7530   -0.8050   -0.0470 H   0  0  0  0  0  0  0  0  0  0  0  0
   -2.6720   -3.7540    0.1320 H   0  0  0  0  0  0  0  0  0  0  0  0
   -0.9590   -1.9930    0.1170 H   0  0  0  0  0  0  0  0  0  0  0  0
    0.4560    5.0010   -0.0930 H   0  0  0  0  0  0  0  0  0  0  0  0
   -1.1530    5.4780   -0.1470 H   0  0  0  0  0  0  0  0  0  0  0  0
   -4.6810    1.8270   -0.1080 H   0  0  0  0  0  0  0  0  0  0  0  0
  1 23  1  0  0  0  0
 13 14  1  0  0  0  0
  8 14  1  0  0  0  0
 12 13  1  0  0  0  0
  8 12  1  0  0  0  0
  1 27  2  0  0  0  0
  1 24  1  0  0  0  0
  7  8  1  0  0  0  0
  7 26  1  0  0  0  0
  6 27  1  0  0  0  0
  8  9  1  0  0  0  0
  2 24  2  0  0  0  0
  6 26  1  0  0  0  0
 10 26  1  0  0  0  0
  9 22  1  0  0  0  0
  3  6  2  0  0  0  0
  9 11  1  0  0  0  0
  9 10  1  0  0  0  0
  4 11  2  0  0  0  0
  5 11  1  0  0  0  0
  2  3  1  0  0  0  0
  2 25  1  0  0  0  0
  3 15  1  0  0  0  0
 16 25  1  0  0  0  0
 15 16  2  0  0  0  0
 15 20  1  0  0  0  0
 16 17  1  0  0  0  0
 19 20  2  0  0  0  0
 17 18  2  0  0  0  0
 18 19  1  0  0  0  0
 18 21  1  0  0  0  0
  5 28  1  0  0  0  0
  7 29  1  0  0  0  0
  7 30  1  0  0  0  0
 10 31  1  0  0  0  0
 10 32  1  0  0  0  0
 12 33  1  0  0  0  0
 12 34  1  0  0  0  0
 13 35  1  0  0  0  0
 13 36  1  0  0  0  0
 14 37  1  0  0  0  0
 14 38  1  0  0  0  0
 17 39  1  0  0  0  0
 19 40  1  0  0  0  0
 20 41  1  0  0  0  0
 23 42  1  0  0  0  0
 23 43  1  0  0  0  0
 25 44  1  0  0  0  0
M  END
> <OPENEYE_ISO_SMILES>
c1cc2c(cc1F)[nH]c3c2c(nc(n3)N)[N@]4C[C@@](C5(C4)CCC5)(C(=O)O)F

> <OPENEYE_INCHI>
InChI=1S/C18H17F2N5O2/c19-9-2-3-10-11(6-9)22-13-12(10)14(24-16(21)23-13)25-7-17(4-1-5-17)18(20,8-25)15(26)27/h2-3,6H,1,4-5,7-8H2,(H,26,27)(H3,21,22,23,24)/t18-/m0/s1

> <OPENEYE_INCHIKEY>
CDBGIGRGQZLBAF-SFHVURJKSA-N

> <FORMULA>
C18H17F2N5O2

$$$$
