@<TRIPOS>MOLECULE
/home/pku/3cl/gett_pdb/8DGB/8DGB_mol2/ligand/8DGB_B1S.pdb
 29 30 0 0 0
SMALL
GASTEIGER

@<TRIPOS>ATOM
      1  C7        21.4420    3.9730  -14.1360 C.3   401  B1S401      0.2368
      2  O8        20.3700    3.7830  -13.2750 O.3   401  B1S401     -0.4285
      3  C9        19.8280    2.5070  -13.3450 C.2   401  B1S401      0.4218
      4  O10       18.7670    2.3150  -12.8810 O.2   401  B1S401     -0.2245
      5  C1        21.1940    5.2320  -14.9510 C.ar  401  B1S401      0.0213
      6  C2        19.9310    5.4970  -15.4380 C.ar  401  B1S401     -0.0007
      7  C3        19.7050    6.6390  -16.1780 C.ar  401  B1S401     -0.0002
      8  C4        20.7420    7.5160  -16.4340 C.ar  401  B1S401     -0.0000
      9  C5        22.0070    7.2510  -15.9470 C.ar  401  B1S401     -0.0002
     10  C6        22.2330    6.1080  -15.2040 C.ar  401  B1S401     -0.0007
     11  N11       20.5540    1.4250  -13.9710 N.am  401  B1S401     -0.1611
     12  C12       19.9550    0.1100  -14.0420 C.3   401  B1S401      0.1761
     13  C17       20.0460   -0.5680  -12.6870 C.2   401  B1S401      0.2614
     14  O18       21.1050   -0.8410  -12.2500 O.2   401  B1S401     -0.2715
     15  C13       20.7260   -0.7340  -15.0420 C.3   401  B1S401      0.0312
     16  C14       20.7090   -0.0530  -16.4020 C.3   401  B1S401      0.0022
     17  C15       21.6760   -0.7790  -17.3300 C.3   401  B1S401      0.0001
     18  C16       19.3020   -0.1520  -16.9730 C.3   401  B1S401      0.0001
     19  N19       18.8430   -0.8750  -11.9410 N.am  401  B1S401     -0.2030
     20  C20       18.8820   -1.5280  -10.6480 C.3   401  B1S401      0.1287
     21  C21       18.2080   -2.8930  -10.8090 C.3   401  B1S401      0.2036
     22  O22       19.2170   -3.8590  -11.0330 O.3   401  B1S401     -0.2185
     23  C24       18.1070   -0.6810   -9.6420 C.3   401  B1S401      0.0335
     24  C25       18.2510    0.8320   -9.9920 C.3   401  B1S401      0.0818
     25  C26       19.4440    1.3590   -9.2800 C.3   401  B1S401      0.0326
     26  C27       18.8910    2.0240   -8.0090 C.3   401  B1S401      0.1156
     27  N28       17.4420    2.3740   -8.3210 N.am  401  B1S401     -0.2054
     28  C29       17.0640    1.6280   -9.5350 C.2   401  B1S401      0.2410
     29  O30       16.0120    1.6800  -10.0520 O.2   401  B1S401     -0.2734
@<TRIPOS>BOND
     1    17    16    1
     2    18    16    1
     3     8     7   ar
     4     8     9   ar
     5    16    15    1
     6     7     6   ar
     7     9    10   ar
     8     6     5   ar
     9    10     5   ar
    10    15    12    1
    11     5     1    1
    12     1     2    1
    13    12    11    1
    14    12    13    1
    15    11     3   am
    16     3     2    1
    17     3     4    2
    18    13    14    2
    19    13    19   am
    20    19    20    1
    21    22    21    1
    22    21    20    1
    23    20    23    1
    24    29    28    2
    25    24    23    1
    26    24    28    1
    27    24    25    1
    28    28    27   am
    29    25    26    1
    30    27    26    1
