QZ6
  -OEChem-02242320033D

 35 38  0     1  0  0  0  0  0999 V2000
    0.7130    3.7310   -0.1700 C   0  0  0  0  0  0  0  0  0  0  0  0
   -5.0920   -1.1270    0.5360 C   0  0  0  0  0  0  0  0  0  0  0  0
   -4.6860    0.2260    1.1250 C   0  0  0  0  0  0  0  0  0  0  0  0
   -3.2110   -0.1400    0.9410 C   0  0  2  0  0  0  0  0  0  0  0  0
   -2.3220    1.0700    0.6500 C   0  0  0  0  0  0  0  0  0  0  0  0
    2.0920   -0.1400    0.1200 C   0  0  0  0  0  0  0  0  0  0  0  0
    3.9440   -2.2000    0.1040 C   0  0  0  0  0  0  0  0  0  0  0  0
    4.3650   -0.9070   -0.1280 C   0  0  0  0  0  0  0  0  0  0  0  0
    3.4460    0.1370   -0.1230 C   0  0  0  0  0  0  0  0  0  0  0  0
    2.3630    2.1240   -0.2140 C   0  0  0  0  0  0  0  0  0  0  0  0
    1.3900    1.1510    0.0600 C   0  0  0  0  0  0  0  0  0  0  0  0
    0.0580    1.5540    0.2170 C   0  0  0  0  0  0  0  0  0  0  0  0
    1.6790   -1.4500    0.3530 C   0  0  0  0  0  0  0  0  0  0  0  0
    2.6030   -2.4720    0.3440 C   0  0  0  0  0  0  0  0  0  0  0  0
    4.8410   -3.2100    0.0970 F   0  0  0  0  0  0  0  0  0  0  0  0
    3.5820    1.5010   -0.3200 N   0  0  0  0  0  0  0  0  0  0  0  0
   -0.9340    0.6290    0.4890 N   0  0  0  0  0  0  0  0  0  0  0  0
   -0.2320    2.8470    0.0890 N   0  0  0  0  0  0  0  0  0  0  0  0
    1.9760    3.3960   -0.3200 N   0  0  0  0  0  0  0  0  0  0  0  0
   -3.8210   -0.2650   -1.6890 O   0  0  0  0  0  0  0  0  0  0  0  0
   -2.9640   -2.3390   -0.6110 O   0  0  0  0  0  0  0  0  0  0  0  0
   -3.6360   -1.0890   -0.5460 S   0  0  0  0  0  0  0  0  0  0  0  0
    0.4370    4.7710   -0.2680 H   0  0  0  0  0  0  0  0  0  0  0  0
   -5.0630   -1.9370    1.2640 H   0  0  0  0  0  0  0  0  0  0  0  0
   -6.0340   -1.0900   -0.0110 H   0  0  0  0  0  0  0  0  0  0  0  0
   -4.9970    1.0720    0.5110 H   0  0  0  0  0  0  0  0  0  0  0  0
   -4.9720    0.3420    2.1700 H   0  0  0  0  0  0  0  0  0  0  0  0
   -2.8200   -0.7600    1.7480 H   0  0  0  0  0  0  0  0  0  0  0  0
   -2.6580    1.5550   -0.2670 H   0  0  0  0  0  0  0  0  0  0  0  0
   -2.3860    1.7760    1.4780 H   0  0  0  0  0  0  0  0  0  0  0  0
    5.4100   -0.7050   -0.3140 H   0  0  0  0  0  0  0  0  0  0  0  0
    0.6370   -1.6640    0.5410 H   0  0  0  0  0  0  0  0  0  0  0  0
    2.2840   -3.4880    0.5250 H   0  0  0  0  0  0  0  0  0  0  0  0
    4.4200    1.9530   -0.5060 H   0  0  0  0  0  0  0  0  0  0  0  0
   -0.7110   -0.3110    0.5730 H   0  0  0  0  0  0  0  0  0  0  0  0
  7 15  1  0  0  0  0
  7  8  2  0  0  0  0
  8  9  1  0  0  0  0
 10 16  1  0  0  0  0
 10 11  2  0  0  0  0
 11 12  1  0  0  0  0
  5 17  1  0  0  0  0
  4  5  1  0  0  0  0
  3  4  1  0  0  0  0
  2  3  1  0  0  0  0
  2 22  1  0  0  0  0
 20 22  2  0  0  0  0
 21 22  2  0  0  0  0
 12 17  1  0  0  0  0
 12 18  2  0  0  0  0
  1 18  1  0  0  0  0
  1 19  2  0  0  0  0
  9 16  1  0  0  0  0
  6  9  2  0  0  0  0
  6 13  1  0  0  0  0
 13 14  2  0  0  0  0
  7 14  1  0  0  0  0
 10 19  1  0  0  0  0
  6 11  1  0  0  0  0
  4 22  1  0  0  0  0
  1 23  1  0  0  0  0
  2 24  1  0  0  0  0
  2 25  1  0  0  0  0
  3 26  1  0  0  0  0
  3 27  1  0  0  0  0
  4 28  1  0  0  0  0
  5 29  1  0  0  0  0
  5 30  1  0  0  0  0
  8 31  1  0  0  0  0
 13 32  1  0  0  0  0
 14 33  1  0  0  0  0
 16 34  1  0  0  0  0
 17 35  1  0  0  0  0
M  END
> <OPENEYE_ISO_SMILES>
c1cc2c(cc1F)[nH]c3c2c(ncn3)NC[C@H]4CCS4(=O)=O

> <OPENEYE_INCHI>
InChI=1S/C14H13FN4O2S/c15-8-1-2-10-11(5-8)19-14-12(10)13(17-7-18-14)16-6-9-3-4-22(9,20)21/h1-2,5,7,9H,3-4,6H2,(H2,16,17,18,19)/t9-/m1/s1

> <OPENEYE_INCHIKEY>
QYGCDFUDMPADLQ-SECBINFHSA-N

> <FORMULA>
C14H13FN4O2S

$$$$
