@<TRIPOS>MOLECULE
/home/pku/3cl/gett_pdb/5T6F/5T6F_mol2/ligand/5T6F_N38.pdb
 37 39 0 0 0
SMALL
GASTEIGER

@<TRIPOS>ATOM
      1  C01        4.3390   59.7860  -13.0800 C.3   201  N38201      0.2525
      2  C03        4.4750   61.3390  -11.2570 C.ar  201  N38201      0.1389
      3  C04        3.9780   62.4780  -11.8790 C.ar  201  N38201      0.0400
      4  C05        3.3870   63.4930  -11.1340 C.ar  201  N38201      0.0400
      5  C06        3.3050   63.3940   -9.7500 C.ar  201  N38201      0.1388
      6  C08        2.1040   65.4890   -9.6460 C.3   201  N38201      0.2073
      7  C09        1.9860   66.6920   -8.7020 C.3   201  N38201      0.0744
      8  C10        3.2420   67.5670   -8.8210 C.3   201  N38201      0.1744
      9  C13        6.0340   69.2940   -6.4440 C.3   201  N38201      0.1747
     10  C14        7.1590   70.1600   -6.9170 C.3   201  N38201      0.0287
     11  C15        7.9460   69.5690   -8.1000 C.3   201  N38201      0.0019
     12  C16        8.6230   68.3020   -7.5990 C.3   201  N38201      0.0001
     13  C17        9.6970   67.7940   -8.5390 C.3   201  N38201      0.0000
     14  C18       10.7060   68.8870   -8.8740 C.3   201  N38201      0.0000
     15  C19       10.0230   70.1510   -9.3970 C.3   201  N38201      0.0000
     16  C20        8.9540   70.6520   -8.4530 C.3   201  N38201      0.0001
     17  C21        5.5910   69.8520   -5.0760 C.2   201  N38201      0.2591
     18  C23        5.7200   69.7400   -2.5290 C.3   201  N38201      0.1287
     19  C24        4.9570   68.6310   -1.7590 C.3   201  N38201      0.0335
     20  C25        3.5950   68.2310   -2.3970 C.3   201  N38201      0.0818
     21  C26        2.8870   67.3760   -1.7040 C.2   201  N38201      0.2410
     22  C28        1.4310   69.1710   -2.6350 C.3   201  N38201      0.1156
     23  C29        2.6510   69.5900   -2.5420 C.3   201  N38201      0.0326
     24  C31        7.0040   70.1380   -1.8000 C.3   201  N38201      0.2036
     25  C36        3.8120   62.2590   -9.1400 C.ar  201  N38201      0.0400
     26  C37        4.3920   61.2300   -9.8810 C.ar  201  N38201      0.0400
     27  N12        4.9640   69.4040   -7.4120 N.3   201  N38201     -0.0742
     28  N22        6.1170   69.2320   -3.8420 N.am  201  N38201     -0.2033
     29  N27        1.3790   67.8650   -1.7900 N.am  201  N38201     -0.2054
     30  O02        5.0880   60.3170  -12.0190 O.3   201  N38201     -0.4714
     31  O07        2.7150   64.4190   -8.9530 O.3   201  N38201     -0.4754
     32  O30        3.2300   66.3830   -1.1550 O.2   201  N38201     -0.2734
     33  O32        7.5920   71.1930   -2.5020 O.3   201  N38201     -0.2185
     34  O33        4.8760   70.7900   -5.0380 O.2   201  N38201     -0.2718
     35  O34        3.7360   67.4520   -6.1950 O.2   201  N38201     -0.1561
     36  O35        2.3840   69.2240   -6.9100 O.2   201  N38201     -0.1561
     37  S11        3.5540   68.4350   -7.2620 S.O2  201  N38201      0.0578
@<TRIPOS>BOND
     1     1    30    1
     2    30     2    1
     3     3     2   ar
     4     3     4   ar
     5     2    26   ar
     6     4     5   ar
     7    26    25   ar
     8     5    25   ar
     9     5    31    1
    10     6    31    1
    11     6     7    1
    12    15    14    1
    13    15    16    1
    14    14    13    1
    15     8     7    1
    16     8    37    1
    17    13    12    1
    18    16    11    1
    19    11    12    1
    20    11    10    1
    21    27    37    1
    22    27     9    1
    23    37    36    2
    24    37    35    2
    25    10     9    1
    26     9    17    1
    27    17    34    2
    28    17    28   am
    29    28    18    1
    30    22    23    1
    31    22    29    1
    32    23    20    1
    33    18    24    1
    34    18    19    1
    35    33    24    1
    36    20    19    1
    37    20    21    1
    38    29    21   am
    39    21    32    2
