T2Y
  -OEChem-02242320043D

 25 26  0     0  0  0  0  0  0999 V2000
    0.2740   -1.5990   -0.1460 C   0  0  0  0  0  0  0  0  0  0  0  0
    1.6020   -1.7320    0.2150 C   0  0  0  0  0  0  0  0  0  0  0  0
    2.4290   -0.6220    0.2350 C   0  0  0  0  0  0  0  0  0  0  0  0
    4.1440    0.7890   -0.0020 C   0  0  0  0  0  0  0  0  0  0  0  0
    1.9200    0.6280   -0.1090 C   0  0  0  0  0  0  0  0  0  0  0  0
   -2.4870    0.0540    0.2990 N   0  0  0  0  0  0  0  0  0  0  0  0
   -4.6530    0.5000    1.4070 C   0  0  0  0  0  0  0  0  0  0  0  0
   -4.3490    0.1350   -0.9050 O   0  0  0  0  0  0  0  0  0  0  0  0
   -3.8200    0.2170    0.1840 C   0  0  0  0  0  0  0  0  0  0  0  0
   -1.6770   -0.2210   -0.8910 C   0  0  0  0  0  0  0  0  0  0  0  0
   -0.2300   -0.3600   -0.4930 C   0  0  0  0  0  0  0  0  0  0  0  0
    0.5880    0.7540   -0.4690 C   0  0  0  0  0  0  0  0  0  0  0  0
    3.7510   -0.4830    0.5470 O   0  0  0  0  0  0  0  0  0  0  0  0
    2.9220    1.5500   -0.0120 O   0  0  0  0  0  0  0  0  0  0  0  0
   -0.3700   -2.4660   -0.1610 H   0  0  0  0  0  0  0  0  0  0  0  0
    1.9940   -2.7020    0.4820 H   0  0  0  0  0  0  0  0  0  0  0  0
    4.8880    1.2670    0.6350 H   0  0  0  0  0  0  0  0  0  0  0  0
    4.5300    0.6660   -1.0140 H   0  0  0  0  0  0  0  0  0  0  0  0
   -2.0640    0.1190    1.1690 H   0  0  0  0  0  0  0  0  0  0  0  0
   -4.9890   -0.4400    1.8440 H   0  0  0  0  0  0  0  0  0  0  0  0
   -4.0530    1.0460    2.1360 H   0  0  0  0  0  0  0  0  0  0  0  0
   -5.5180    1.1010    1.1270 H   0  0  0  0  0  0  0  0  0  0  0  0
   -2.0170   -1.1480   -1.3550 H   0  0  0  0  0  0  0  0  0  0  0  0
   -1.7820    0.6000   -1.6000 H   0  0  0  0  0  0  0  0  0  0  0  0
    0.1900    1.7220   -0.7360 H   0  0  0  0  0  0  0  0  0  0  0  0
  7  9  1  0  0  0  0
  8  9  2  0  0  0  0
  6  9  1  0  0  0  0
  6 10  1  0  0  0  0
 10 11  1  0  0  0  0
  1 11  2  0  0  0  0
  1  2  1  0  0  0  0
  2  3  2  0  0  0  0
  3 13  1  0  0  0  0
  4 13  1  0  0  0  0
  4 14  1  0  0  0  0
  5 14  1  0  0  0  0
  3  5  1  0  0  0  0
  5 12  2  0  0  0  0
 11 12  1  0  0  0  0
  1 15  1  0  0  0  0
  2 16  1  0  0  0  0
  4 17  1  0  0  0  0
  4 18  1  0  0  0  0
  6 19  1  0  0  0  0
  7 20  1  0  0  0  0
  7 21  1  0  0  0  0
  7 22  1  0  0  0  0
 10 23  1  0  0  0  0
 10 24  1  0  0  0  0
 12 25  1  0  0  0  0
M  END
> <OPENEYE_ISO_SMILES>
CC(=O)NCc1ccc2c(c1)OCO2

> <OPENEYE_INCHI>
InChI=1S/C10H11NO3/c1-7(12)11-5-8-2-3-9-10(4-8)14-6-13-9/h2-4H,5-6H2,1H3,(H,11,12)

> <OPENEYE_INCHIKEY>
YFWYIWVJRPDXQD-UHFFFAOYSA-N

> <FORMULA>
C10H11NO3

$$$$
