5LH
  -OEChem-02242320013D

 79 81  0     1  0  0  0  0  0999 V2000
   -1.8600    1.5800   -1.4320 C   0  0  0  0  0  0  0  0  0  0  0  0
   -2.1430    2.6190   -1.9950 O   0  0  0  0  0  0  0  0  0  0  0  0
   -2.7970    0.6270   -1.2660 O   0  0  0  0  0  0  0  0  0  0  0  0
   -4.1250    0.9120   -1.7800 C   0  0  0  0  0  0  0  0  0  0  0  0
   -5.0320   -0.2600   -1.5050 C   0  0  0  0  0  0  0  0  0  0  0  0
   -5.7510   -0.3160   -0.3260 C   0  0  0  0  0  0  0  0  0  0  0  0
   -6.5830   -1.3910   -0.0750 C   0  0  0  0  0  0  0  0  0  0  0  0
   -6.6960   -2.4100   -1.0020 C   0  0  0  0  0  0  0  0  0  0  0  0
   -5.9770   -2.3540   -2.1810 C   0  0  0  0  0  0  0  0  0  0  0  0
   -5.1480   -1.2760   -2.4350 C   0  0  0  0  0  0  0  0  0  0  0  0
   -0.7230   -2.5680    2.5160 N   0  0  0  0  0  0  0  0  0  0  0  0
   -1.3290   -1.4610    3.2940 C   0  0  0  0  0  0  0  0  0  0  0  0
   -2.1000   -0.5550    2.3310 C   0  0  0  0  0  0  0  0  0  0  0  0
   -2.4670    0.7490    3.0420 C   0  0  0  0  0  0  0  0  0  0  0  0
   -1.9390    1.8850    2.2830 N   0  0  0  0  0  0  0  0  0  0  0  0
   -0.9800    1.8250    1.3290 C   0  0  0  0  0  0  0  0  0  0  0  0
   -0.8020    3.0940    0.8930 C   0  0  0  0  0  0  0  0  0  0  0  0
    0.1600    3.5560   -0.1700 C   0  0  0  0  0  0  0  0  0  0  0  0
    0.4120    2.4150   -1.1580 C   0  0  2  0  0  0  0  0  0  0  0  0
   -0.6070    1.3790   -0.9780 N   0  0  0  0  0  0  0  0  0  0  0  0
    1.7770    1.8270   -0.9090 C   0  0  0  0  0  0  0  0  0  0  0  0
    2.3050    1.9230    0.1790 O   0  0  0  0  0  0  0  0  0  0  0  0
   -1.6490    3.8580    1.5930 N   0  0  0  0  0  0  0  0  0  0  0  0
   -2.3070    3.1120    2.4080 N   0  0  0  0  0  0  0  0  0  0  0  0
    2.4080    1.1810   -1.9380 N   0  0  0  0  0  0  0  0  0  0  0  0
    3.7440    0.6320   -1.6030 C   0  0  2  0  0  0  0  0  0  0  0  0
    3.6160   -0.8590   -1.4200 C   0  0  0  0  0  0  0  0  0  0  0  0
    3.7190   -1.6060   -2.3700 O   0  0  0  0  0  0  0  0  0  0  0  0
    4.2500    1.2670   -0.3060 C   0  0  0  0  0  0  0  0  0  0  0  0
    5.7190    0.8940   -0.0960 C   0  0  0  0  0  0  0  0  0  0  0  0
    6.5680    1.5200   -1.2040 C   0  0  0  0  0  0  0  0  0  0  0  0
    6.1880    1.4170    1.2630 C   0  0  0  0  0  0  0  0  0  0  0  0
    3.3850   -1.3530   -0.1720 N   0  0  0  0  0  0  0  0  0  0  0  0
    3.2650   -2.8220   -0.0620 C   0  0  1  0  0  0  0  0  0  0  0  0
    2.7730   -3.1730    1.3430 C   0  0  0  0  0  0  0  0  0  0  0  0
    1.2630   -3.4160    1.3090 C   0  0  0  0  0  0  0  0  0  0  0  0
    0.5650   -2.3470    2.1100 C   0  0  0  0  0  0  0  0  0  0  0  0
    1.1310   -1.3100    2.3840 O   0  0  0  0  0  0  0  0  0  0  0  0
    2.2630   -3.3330   -1.0990 C   0  0  0  0  0  0  0  0  0  0  0  0
    2.0220   -4.7250   -0.8820 O   0  0  0  0  0  0  0  0  0  0  0  0
   -4.5210    1.8010   -1.2890 H   0  0  0  0  0  0  0  0  0  0  0  0
   -4.0690    1.0850   -2.8550 H   0  0  0  0  0  0  0  0  0  0  0  0
   -5.6630    0.4800    0.3980 H   0  0  0  0  0  0  0  0  0  0  0  0
   -7.1450   -1.4350    0.8470 H   0  0  0  0  0  0  0  0  0  0  0  0
   -7.3450   -3.2500   -0.8050 H   0  0  0  0  0  0  0  0  0  0  0  0
   -6.0640   -3.1500   -2.9060 H   0  0  0  0  0  0  0  0  0  0  0  0
   -4.5860   -1.2320   -3.3560 H   0  0  0  0  0  0  0  0  0  0  0  0
   -2.0110   -1.8680    4.0400 H   0  0  0  0  0  0  0  0  0  0  0  0
   -0.5440   -0.8890    3.7890 H   0  0  0  0  0  0  0  0  0  0  0  0
   -1.4790   -0.3340    1.4640 H   0  0  0  0  0  0  0  0  0  0  0  0
   -3.0100   -1.0610    2.0070 H   0  0  0  0  0  0  0  0  0  0  0  0
   -3.5520    0.8320    3.1120 H   0  0  0  0  0  0  0  0  0  0  0  0
   -2.0370    0.7500    4.0440 H   0  0  0  0  0  0  0  0  0  0  0  0
   -0.4610    0.9430    0.9860 H   0  0  0  0  0  0  0  0  0  0  0  0
   -0.2660    4.4080   -0.7000 H   0  0  0  0  0  0  0  0  0  0  0  0
    1.1010    3.8500    0.2940 H   0  0  0  0  0  0  0  0  0  0  0  0
    0.3630    2.8000   -2.1770 H   0  0  0  0  0  0  0  0  0  0  0  0
   -1.2010   -3.3880    2.3140 H   0  0  0  0  0  0  0  0  0  0  0  0
   -0.3800    0.5470   -0.5330 H   0  0  0  0  0  0  0  0  0  0  0  0
    2.0110    1.0900   -2.8180 H   0  0  0  0  0  0  0  0  0  0  0  0
    4.4400    0.8430   -2.4140 H   0  0  0  0  0  0  0  0  0  0  0  0
    4.1560    2.3510   -0.3720 H   0  0  0  0  0  0  0  0  0  0  0  0
    3.6580    0.9020    0.5330 H   0  0  0  0  0  0  0  0  0  0  0  0
    5.8260   -0.1900   -0.1240 H   0  0  0  0  0  0  0  0  0  0  0  0
    6.2990    1.0770   -2.1620 H   0  0  0  0  0  0  0  0  0  0  0  0
    6.3870    2.5950   -1.2370 H   0  0  0  0  0  0  0  0  0  0  0  0
    7.6230    1.3360   -1.0010 H   0  0  0  0  0  0  0  0  0  0  0  0
    5.5830    0.9710    2.0530 H   0  0  0  0  0  0  0  0  0  0  0  0
    7.2340    1.1520    1.4140 H   0  0  0  0  0  0  0  0  0  0  0  0
    6.0810    2.5020    1.2920 H   0  0  0  0  0  0  0  0  0  0  0  0
    3.3030   -0.7740    0.6010 H   0  0  0  0  0  0  0  0  0  0  0  0
    4.2370   -3.2820   -0.2360 H   0  0  0  0  0  0  0  0  0  0  0  0
    3.2780   -4.0740    1.6910 H   0  0  0  0  0  0  0  0  0  0  0  0
    2.9920   -2.3480    2.0220 H   0  0  0  0  0  0  0  0  0  0  0  0
    0.9130   -3.3890    0.2770 H   0  0  0  0  0  0  0  0  0  0  0  0
    1.0420   -4.3920    1.7420 H   0  0  0  0  0  0  0  0  0  0  0  0
    1.3260   -2.7830   -1.0020 H   0  0  0  0  0  0  0  0  0  0  0  0
    2.6680   -3.1860   -2.1000 H   0  0  0  0  0  0  0  0  0  0  0  0
    1.3950   -5.1170   -1.5050 H   0  0  0  0  0  0  0  0  0  0  0  0
  1  2  2  0  0  0  0
  1  3  1  0  0  0  0
  1 20  1  0  0  0  0
 19 20  1  0  0  0  0
 21 22  2  0  0  0  0
 37 38  2  0  0  0  0
 19 21  1  0  0  0  0
 18 19  1  0  0  0  0
 21 25  1  0  0  0  0
 30 31  1  0  0  0  0
 23 24  2  0  0  0  0
 17 23  1  0  0  0  0
 15 24  1  0  0  0  0
 11 37  1  0  0  0  0
 36 37  1  0  0  0  0
 11 12  1  0  0  0  0
 12 13  1  0  0  0  0
 13 14  1  0  0  0  0
 25 26  1  0  0  0  0
 17 18  1  0  0  0  0
 16 17  2  0  0  0  0
 26 27  1  0  0  0  0
 26 29  1  0  0  0  0
 14 15  1  0  0  0  0
 15 16  1  0  0  0  0
 35 36  1  0  0  0  0
 29 30  1  0  0  0  0
 30 32  1  0  0  0  0
 34 35  1  0  0  0  0
 27 33  1  0  0  0  0
 33 34  1  0  0  0  0
 27 28  2  0  0  0  0
 34 39  1  0  0  0  0
 39 40  1  0  0  0  0
 11 58  1  0  0  0  0
 12 48  1  0  0  0  0
 12 49  1  0  0  0  0
 13 50  1  0  0  0  0
 13 51  1  0  0  0  0
 14 52  1  0  0  0  0
 14 53  1  0  0  0  0
 16 54  1  0  0  0  0
 18 56  1  0  0  0  0
 18 55  1  0  0  0  0
 19 57  1  0  0  0  0
 20 59  1  0  0  0  0
 25 60  1  0  0  0  0
 26 61  1  0  0  0  0
 29 62  1  0  0  0  0
 29 63  1  0  0  0  0
 30 64  1  0  0  0  0
 31 65  1  0  0  0  0
 31 66  1  0  0  0  0
 31 67  1  0  0  0  0
 32 68  1  0  0  0  0
 32 69  1  0  0  0  0
 32 70  1  0  0  0  0
 33 71  1  0  0  0  0
 34 72  1  0  0  0  0
 35 73  1  0  0  0  0
 35 74  1  0  0  0  0
 36 75  1  0  0  0  0
 36 76  1  0  0  0  0
 39 77  1  0  0  0  0
 39 78  1  0  0  0  0
 40 79  1  0  0  0  0
  3  4  1  0  0  0  0
  4  5  1  0  0  0  0
  5  6  2  0  0  0  0
  6  7  1  0  0  0  0
  7  8  2  0  0  0  0
  8  9  1  0  0  0  0
  9 10  2  0  0  0  0
  5 10  1  0  0  0  0
  4 41  1  0  0  0  0
  4 42  1  0  0  0  0
  6 43  1  0  0  0  0
  7 44  1  0  0  0  0
  8 45  1  0  0  0  0
  9 46  1  0  0  0  0
 10 47  1  0  0  0  0
M  END
> <OPENEYE_ISO_SMILES>
CC(C)C[C@H]1C(=O)N[C@@H](CCC(=O)NCCCn2cc(nn2)C[C@@H](C(=O)N1)NC(=O)OCc3ccccc3)CO

> <OPENEYE_INCHI>
InChI=1S/C27H39N7O6/c1-18(2)13-22-25(37)29-20(16-35)9-10-24(36)28-11-6-12-34-15-21(32-33-34)14-23(26(38)30-22)31-27(39)40-17-19-7-4-3-5-8-19/h3-5,7-8,15,18,20,22-23,35H,6,9-14,16-17H2,1-2H3,(H,28,36)(H,29,37)(H,30,38)(H,31,39)/t20-,22-,23-/m0/s1

> <OPENEYE_INCHIKEY>
SAMHMGNFOZHCAI-PMVMPFDFSA-N

> <FORMULA>
C27H39N7O6

$$$$
