HSM
  -OEChem-02242320023D

 17 17  0     0  0  0  0  0  0999 V2000
    0.0010    0.1320    3.4200 N   0  0  0  0  0  0  0  0  0  0  0  0
   -0.2770    0.4320    2.0090 C   0  0  0  0  0  0  0  0  0  0  0  0
    0.4800   -0.5540    1.1180 C   0  0  0  0  0  0  0  0  0  0  0  0
    0.1940   -0.2460   -0.3280 C   0  0  0  0  0  0  0  0  0  0  0  0
   -1.0110   -0.2650   -0.9140 N   0  0  0  0  0  0  0  0  0  0  0  0
    1.1060    0.0890   -1.2610 C   0  0  0  0  0  0  0  0  0  0  0  0
   -0.8830    0.0530   -2.1730 C   0  0  0  0  0  0  0  0  0  0  0  0
    0.4230    0.2800   -2.4310 N   0  0  0  0  0  0  0  0  0  0  0  0
   -0.4050   -0.7710    3.6100 H   0  0  0  0  0  0  0  0  0  0  0  0
   -0.5160    0.8040    3.9660 H   0  0  0  0  0  0  0  0  0  0  0  0
   -1.3470    0.3410    1.8230 H   0  0  0  0  0  0  0  0  0  0  0  0
    0.0450    1.4480    1.7820 H   0  0  0  0  0  0  0  0  0  0  0  0
    1.5500   -0.4630    1.3050 H   0  0  0  0  0  0  0  0  0  0  0  0
    0.1570   -1.5700    1.3450 H   0  0  0  0  0  0  0  0  0  0  0  0
    2.1710    0.1900   -1.1130 H   0  0  0  0  0  0  0  0  0  0  0  0
   -1.6870    0.1210   -2.8910 H   0  0  0  0  0  0  0  0  0  0  0  0
    0.8050    0.5310   -3.2870 H   0  0  0  0  0  0  0  0  0  0  0  0
  1  2  1  0  0  0  0
  1  9  1  0  0  0  0
  1 10  1  0  0  0  0
  2  3  1  0  0  0  0
  2 11  1  0  0  0  0
  2 12  1  0  0  0  0
  3  4  1  0  0  0  0
  3 13  1  0  0  0  0
  3 14  1  0  0  0  0
  4  5  1  0  0  0  0
  4  6  2  0  0  0  0
  5  7  2  0  0  0  0
  6  8  1  0  0  0  0
  6 15  1  0  0  0  0
  7  8  1  0  0  0  0
  7 16  1  0  0  0  0
  8 17  1  0  0  0  0
M  END
> <OPENEYE_ISO_SMILES>
c1c(nc[nH]1)CCN

> <OPENEYE_INCHI>
InChI=1S/C5H9N3/c6-2-1-5-3-7-4-8-5/h3-4H,1-2,6H2,(H,7,8)

> <OPENEYE_INCHIKEY>
NTYJJOPFIAHURM-UHFFFAOYSA-N

> <FORMULA>
C5H9N3

$$$$
