1SQ
  -OEChem-02242320003D

 19 20  0     0  0  0  0  0  0999 V2000
   -2.9360    1.7460    3.4950 N   0  0  0  0  0  0  0  0  0  0  0  0
   -1.6080    2.1920    3.7190 C   0  0  0  0  0  0  0  0  0  0  0  0
   -1.4120    2.9780    4.8020 N   0  0  0  0  0  0  0  0  0  0  0  0
   -0.1490    3.4020    5.0160 C   0  0  0  0  0  0  0  0  0  0  0  0
    0.9290    3.0840    4.2030 C   0  0  0  0  0  0  0  0  0  0  0  0
    0.7050    2.2700    3.0870 C   0  0  0  0  0  0  0  0  0  0  0  0
    1.7430    1.9020    2.2160 C   0  0  0  0  0  0  0  0  0  0  0  0
    1.4880    1.0890    1.1100 C   0  0  0  0  0  0  0  0  0  0  0  0
    0.1960    0.6330    0.8610 C   0  0  0  0  0  0  0  0  0  0  0  0
   -0.8470    0.9880    1.7160 C   0  0  0  0  0  0  0  0  0  0  0  0
   -0.6020    1.8060    2.8310 C   0  0  0  0  0  0  0  0  0  0  0  0
   -3.3550    1.1360    4.1610 H   0  0  0  0  0  0  0  0  0  0  0  0
   -3.3800    1.9770    2.6340 H   0  0  0  0  0  0  0  0  0  0  0  0
   -0.0160    4.0310    5.8900 H   0  0  0  0  0  0  0  0  0  0  0  0
    1.9180    3.4640    4.4400 H   0  0  0  0  0  0  0  0  0  0  0  0
    2.7610    2.2460    2.3910 H   0  0  0  0  0  0  0  0  0  0  0  0
    2.2990    0.8110    0.4440 H   0  0  0  0  0  0  0  0  0  0  0  0
    0.0000   -0.0000    0.0000 H   0  0  0  0  0  0  0  0  0  0  0  0
   -1.8420    0.6140    1.4890 H   0  0  0  0  0  0  0  0  0  0  0  0
  1  2  1  0  0  0  0
  1 12  1  0  0  0  0
  1 13  1  0  0  0  0
  2  3  2  0  0  0  0
  2 11  1  0  0  0  0
  3  4  1  0  0  0  0
  4  5  2  0  0  0  0
  4 14  1  0  0  0  0
  5  6  1  0  0  0  0
  5 15  1  0  0  0  0
  6 11  1  0  0  0  0
  6  7  2  0  0  0  0
  7  8  1  0  0  0  0
  7 16  1  0  0  0  0
  8  9  2  0  0  0  0
  8 17  1  0  0  0  0
  9 10  1  0  0  0  0
  9 18  1  0  0  0  0
 10 11  2  0  0  0  0
 10 19  1  0  0  0  0
M  END
> <OPENEYE_ISO_SMILES>
c1ccc2c(c1)ccnc2N

> <OPENEYE_INCHI>
InChI=1S/C9H8N2/c10-9-8-4-2-1-3-7(8)5-6-11-9/h1-6H,(H2,10,11)

> <OPENEYE_INCHIKEY>
OSILBMSORKFRTB-UHFFFAOYSA-N

> <FORMULA>
C9H8N2

$$$$
