R8Z
  -OEChem-02242320033D

 41 44  0     1  0  0  0  0  0999 V2000
   -2.5380    0.9070   -1.8510 C   0  0  0  0  0  0  0  0  0  0  0  0
   -1.9110   -0.1590   -0.9580 C   0  0  2  0  0  0  0  0  0  0  0  0
    0.1050   -3.4950    0.4130 C   0  0  0  0  0  0  0  0  0  0  0  0
    1.8860   -2.0640    0.7080 C   0  0  0  0  0  0  0  0  0  0  0  0
    2.0830    1.2360   -0.9180 C   0  0  0  0  0  0  0  0  0  0  0  0
   -3.9550    1.9420   -0.0660 C   0  0  0  0  0  0  0  0  0  0  0  0
   -3.9670    1.2070   -1.4080 C   0  0  0  0  0  0  0  0  0  0  0  0
   -0.8520   -1.2020   -2.8700 C   0  0  0  0  0  0  0  0  0  0  0  0
    0.0190   -1.4790   -0.7030 C   0  0  0  0  0  0  0  0  0  0  0  0
    1.2560   -1.1410   -0.1420 C   0  0  0  0  0  0  0  0  0  0  0  0
    2.1480    0.0250   -0.2310 C   0  0  0  0  0  0  0  0  0  0  0  0
    3.2530   -0.2620    0.5850 C   0  0  0  0  0  0  0  0  0  0  0  0
    4.2770    0.6720    0.6990 C   0  0  0  0  0  0  0  0  0  0  0  0
    4.2010    1.8680    0.0140 C   0  0  0  0  0  0  0  0  0  0  0  0
    3.1060    2.1500   -0.7920 C   0  0  0  0  0  0  0  0  0  0  0  0
   -1.6530    0.4120    0.4380 C   0  0  0  0  0  0  0  0  0  0  0  0
    5.1990    2.7720    0.1300 F   0  0  0  0  0  0  0  0  0  0  0  0
   -0.6390   -0.6010   -1.5460 N   0  0  2  0  0  0  0  0  0  0  0  0
    3.0790   -1.5260    1.1240 N   0  0  0  0  0  0  0  0  0  0  0  0
    1.2740   -3.2220    0.9540 N   0  0  0  0  0  0  0  0  0  0  0  0
   -0.5170   -2.6580   -0.3940 N   0  0  0  0  0  0  0  0  0  0  0  0
   -2.9920    1.6160    2.3710 O   0  0  0  0  0  0  0  0  0  0  0  0
   -4.0420   -0.3210    1.2920 O   0  0  0  0  0  0  0  0  0  0  0  0
   -3.2430    0.8510    1.2000 S   0  0  0  0  0  0  0  0  0  0  0  0
   -1.9450    1.8200   -1.7910 H   0  0  0  0  0  0  0  0  0  0  0  0
   -2.5490    0.5520   -2.8810 H   0  0  0  0  0  0  0  0  0  0  0  0
   -2.5880   -1.0100   -0.8800 H   0  0  0  0  0  0  0  0  0  0  0  0
   -0.3600   -4.4440    0.6360 H   0  0  0  0  0  0  0  0  0  0  0  0
    1.2330    1.4580   -1.5460 H   0  0  0  0  0  0  0  0  0  0  0  0
   -3.3520    2.8460   -0.1500 H   0  0  0  0  0  0  0  0  0  0  0  0
   -4.9750    2.2090    0.2140 H   0  0  0  0  0  0  0  0  0  0  0  0
   -4.4550    1.8300   -2.1580 H   0  0  0  0  0  0  0  0  0  0  0  0
   -4.5170    0.2720   -1.3040 H   0  0  0  0  0  0  0  0  0  0  0  0
   -1.1960   -0.4370   -3.5650 H   0  0  0  0  0  0  0  0  0  0  0  0
    0.0850   -1.6270   -3.2310 H   0  0  0  0  0  0  0  0  0  0  0  0
   -1.6030   -1.9890   -2.7950 H   0  0  0  0  0  0  0  0  0  0  0  0
    5.1320    0.4620    1.3240 H   0  0  0  0  0  0  0  0  0  0  0  0
    3.0570    3.0890   -1.3240 H   0  0  0  0  0  0  0  0  0  0  0  0
   -1.1490   -0.3350    1.0510 H   0  0  0  0  0  0  0  0  0  0  0  0
   -1.0270    1.3010    0.3580 H   0  0  0  0  0  0  0  0  0  0  0  0
    3.7070   -1.9640    1.7200 H   0  0  0  0  0  0  0  0  0  0  0  0
  1  7  1  0  0  0  0
  6  7  1  0  0  0  0
  1  2  1  0  0  0  0
  6 24  1  0  0  0  0
  8 18  1  0  0  0  0
  2 18  1  0  0  0  0
  2 16  1  0  0  0  0
 23 24  2  0  0  0  0
 22 24  2  0  0  0  0
 16 24  1  0  0  0  0
  9 18  1  0  0  0  0
  5 15  2  0  0  0  0
  5 11  1  0  0  0  0
 14 15  1  0  0  0  0
  9 10  2  0  0  0  0
  9 21  1  0  0  0  0
 10 11  1  0  0  0  0
 11 12  2  0  0  0  0
 14 17  1  0  0  0  0
 13 14  2  0  0  0  0
  4 10  1  0  0  0  0
  3 21  2  0  0  0  0
 12 13  1  0  0  0  0
 12 19  1  0  0  0  0
  4 19  1  0  0  0  0
  4 20  2  0  0  0  0
  3 20  1  0  0  0  0
  1 25  1  0  0  0  0
  1 26  1  0  0  0  0
  2 27  1  0  0  0  0
  3 28  1  0  0  0  0
  5 29  1  0  0  0  0
  6 30  1  0  0  0  0
  6 31  1  0  0  0  0
  7 32  1  0  0  0  0
  7 33  1  0  0  0  0
  8 34  1  0  0  0  0
  8 35  1  0  0  0  0
  8 36  1  0  0  0  0
 13 37  1  0  0  0  0
 15 38  1  0  0  0  0
 16 39  1  0  0  0  0
 16 40  1  0  0  0  0
 19 41  1  0  0  0  0
M  END
> <OPENEYE_ISO_SMILES>
C[N@](c1c2c3ccc(cc3[nH]c2ncn1)F)[C@@H]4CCCS(=O)(=O)C4

> <OPENEYE_INCHI>
InChI=1S/C16H17FN4O2S/c1-21(11-3-2-6-24(22,23)8-11)16-14-12-5-4-10(17)7-13(12)20-15(14)18-9-19-16/h4-5,7,9,11H,2-3,6,8H2,1H3,(H,18,19,20)/t11-/m1/s1

> <OPENEYE_INCHIKEY>
FUQOCUYHHLENJU-LLVKDONJSA-N

> <FORMULA>
C16H17FN4O2S

$$$$
