T0Y
  -OEChem-02242320043D

 28 29  0     0  0  0  0  0  0999 V2000
    3.1110    1.0620    0.6890 C   0  0  0  0  0  0  0  0  0  0  0  0
    3.4040   -0.4400    0.6670 C   0  0  0  0  0  0  0  0  0  0  0  0
    2.1040   -1.2090    0.9210 C   0  0  0  0  0  0  0  0  0  0  0  0
    1.0720   -0.8200   -0.1400 C   0  0  0  0  0  0  0  0  0  0  0  0
   -0.2610    1.0150   -0.9870 C   0  0  0  0  0  0  0  0  0  0  0  0
   -1.5550    0.4050   -0.5130 C   0  0  0  0  0  0  0  0  0  0  0  0
   -1.9840   -0.8440   -0.9260 C   0  0  0  0  0  0  0  0  0  0  0  0
   -3.1510   -1.2360   -0.4120 C   0  0  0  0  0  0  0  0  0  0  0  0
   -2.3700    1.0260    0.3410 C   0  0  0  0  0  0  0  0  0  0  0  0
    2.0490    1.3850   -0.3650 C   0  0  0  0  0  0  0  0  0  0  0  0
    0.8260    0.6260   -0.0780 N   0  0  0  0  0  0  0  0  0  0  0  0
    3.9330   -0.8050   -0.6090 O   0  0  0  0  0  0  0  0  0  0  0  0
   -3.7730    0.0140    0.6580 S   0  0  0  0  0  0  0  0  0  0  0  0
    2.7440    1.3470    1.6750 H   0  0  0  0  0  0  0  0  0  0  0  0
    4.0240    1.6150    0.4670 H   0  0  0  0  0  0  0  0  0  0  0  0
    4.1290   -0.6820    1.4440 H   0  0  0  0  0  0  0  0  0  0  0  0
    2.2980   -2.2800    0.8640 H   0  0  0  0  0  0  0  0  0  0  0  0
    1.7220   -0.9610    1.9110 H   0  0  0  0  0  0  0  0  0  0  0  0
    1.4500   -1.0820   -1.1280 H   0  0  0  0  0  0  0  0  0  0  0  0
    0.1410   -1.3550    0.0470 H   0  0  0  0  0  0  0  0  0  0  0  0
   -0.0380    0.6580   -1.9920 H   0  0  0  0  0  0  0  0  0  0  0  0
   -0.3540    2.1010   -0.9980 H   0  0  0  0  0  0  0  0  0  0  0  0
   -1.4180   -1.4560   -1.6130 H   0  0  0  0  0  0  0  0  0  0  0  0
   -3.6390   -2.1760   -0.6200 H   0  0  0  0  0  0  0  0  0  0  0  0
   -2.1960    2.0010    0.7710 H   0  0  0  0  0  0  0  0  0  0  0  0
    1.8280    2.4530   -0.3420 H   0  0  0  0  0  0  0  0  0  0  0  0
    2.4230    1.1130   -1.3520 H   0  0  0  0  0  0  0  0  0  0  0  0
    4.1420   -1.7460   -0.6940 H   0  0  0  0  0  0  0  0  0  0  0  0
  2 12  1  0  0  0  0
  2  3  1  0  0  0  0
  3  4  1  0  0  0  0
  4 11  1  0  0  0  0
  5  6  1  0  0  0  0
  6  7  1  0  0  0  0
  7  8  2  0  0  0  0
  8 13  1  0  0  0  0
  9 13  1  0  0  0  0
  5 11  1  0  0  0  0
 10 11  1  0  0  0  0
  1 10  1  0  0  0  0
  1  2  1  0  0  0  0
  6  9  2  0  0  0  0
  1 14  1  0  0  0  0
  1 15  1  0  0  0  0
  2 16  1  0  0  0  0
  3 17  1  0  0  0  0
  3 18  1  0  0  0  0
  4 19  1  0  0  0  0
  4 20  1  0  0  0  0
  5 21  1  0  0  0  0
  5 22  1  0  0  0  0
  7 23  1  0  0  0  0
  8 24  1  0  0  0  0
  9 25  1  0  0  0  0
 10 26  1  0  0  0  0
 10 27  1  0  0  0  0
 12 28  1  0  0  0  0
M  END
> <OPENEYE_ISO_SMILES>
c1cscc1CN2CCC(CC2)O

> <OPENEYE_INCHI>
InChI=1S/C10H15NOS/c12-10-1-4-11(5-2-10)7-9-3-6-13-8-9/h3,6,8,10,12H,1-2,4-5,7H2

> <OPENEYE_INCHIKEY>
JQJVNJKLFUBEBG-UHFFFAOYSA-N

> <FORMULA>
C10H15NOS

$$$$
