@<TRIPOS>MOLECULE
/home/pku/3cl/gett_pdb/8E68/8E68_mol2/ligand/8E68_WGO.pdb
 34 35 0 0 0
SMALL
GASTEIGER

@<TRIPOS>ATOM
      1  C23        8.7420   19.7130   28.0020 C.3   401  WGO401      0.1287
      2  C24        7.7600   19.6970   26.7580 C.3   401  WGO401      0.0335
      3  C25        7.4180   21.0880   26.2210 C.3   401  WGO401      0.0818
      4  C26        6.5290   20.9880   25.0040 C.2   401  WGO401      0.2410
      5  C21       10.4570   21.5900   27.8130 C.2   401  WGO401      0.2614
      6  C14       10.7060   24.0670   26.1730 C.2   401  WGO401      0.4216
      7  C11       10.6810   27.5350   24.1580 C.3   401  WGO401      0.0475
      8  C07       10.5680   29.3440   26.2070 C.ar  401  WGO401      0.1385
      9  C06       10.3600   30.5560   25.5280 C.ar  401  WGO401      0.0392
     10  C09        9.4230   27.4200   25.0530 C.3   401  WGO401      0.1734
     11  C10        8.1580   27.7220   24.2770 C.3   401  WGO401      0.0475
     12  C05       11.3070   31.5840   25.5350 C.ar  401  WGO401      0.0327
     13  C04       11.7850   29.1990   26.8980 C.ar  401  WGO401      0.0392
     14  C03       12.7510   30.2080   26.9290 C.ar  401  WGO401      0.0327
     15  C02       12.4910   31.3890   26.2390 C.ar  401  WGO401      0.1403
     16  C12        9.2820   25.9060   25.5210 C.3   401  WGO401      0.2496
     17  C16       11.8290   22.1180   27.2910 C.3   401  WGO401      0.1761
     18  C17       12.8990   21.8800   28.3730 C.3   401  WGO401      0.0312
     19  C18       14.3370   22.2480   27.9730 C.3   401  WGO401      0.0022
     20  C19       15.3780   21.9260   29.0800 C.3   401  WGO401      0.0001
     21  C20       14.7330   21.5700   26.6670 C.3   401  WGO401      0.0001
     22  C28        5.3960   22.5000   26.3990 C.3   401  WGO401      0.1156
     23  C29        6.5480   21.8900   27.2080 C.3   401  WGO401      0.0326
     24  C31        8.9680   18.3000   28.5460 C.3   401  WGO401      0.2036
     25  F01       13.4180   32.3750   26.2600 F     401  WGO401     -0.2042
     26  N15       11.7320   23.5690   26.9400 N.am  401  WGO401     -0.1611
     27  N22       10.0320   20.3010   27.5700 N.am  401  WGO401     -0.2030
     28  N27        5.4000   21.7830   25.1160 N.am  401  WGO401     -0.2054
     29  O08        9.6210   28.3030   26.1870 O.3   401  WGO401     -0.4789
     30  O13       10.4560   25.4130   26.1570 O.3   401  WGO401     -0.4297
     31  O30        6.7550   20.2900   24.0050 O.2   401  WGO401     -0.2734
     32  O32        9.8480   18.4250   29.6710 O.3   401  WGO401     -0.2185
     33  O33        9.7390   22.3670   28.4830 O.2   401  WGO401     -0.2715
     34  O34        9.9810   23.3290   25.4920 O.2   401  WGO401     -0.2245
@<TRIPOS>BOND
     1    31     4    2
     2     7    10    1
     3    11    10    1
     4     4    28   am
     5     4     3    1
     6    10    16    1
     7    10    29    1
     8    28    22    1
     9    34     6    2
    10    16    30    1
    11     9    12   ar
    12     9     8   ar
    13    12    15   ar
    14    30     6    1
    15     6    26   am
    16    29     8    1
    17     8    13   ar
    18     3     2    1
    19     3    23    1
    20    15    25    1
    21    15    14   ar
    22    22    23    1
    23    21    19    1
    24     2     1    1
    25    13    14   ar
    26    26    17    1
    27    17     5    1
    28    17    18    1
    29    27     5   am
    30    27     1    1
    31     5    33    2
    32    19    18    1
    33    19    20    1
    34     1    24    1
    35    24    32    1
