@<TRIPOS>MOLECULE
/home/pku/3cl/gett_pdb/5SQD/5SQD_mol2/ligand/5SQD_QPL.pdb
 43 46 0 0 0
SMALL
GASTEIGER

@<TRIPOS>ATOM
      1  C18      -43.0440  -28.3430    1.6730 C.3   201  QPL201     -0.0140
      2  C15      -43.5230  -30.5220    2.9360 C.2   201  QPL201      0.0472
      3  C14      -43.7010  -29.7220    1.6410 C.3   201  QPL201      0.0252
      4  C13      -45.1610  -29.4510    1.4310 C.3   201  QPL201      0.0572
      5  C11      -47.4070  -29.1220    2.5440 C.2   201  QPL201      0.2446
      6  C10      -48.1990  -29.1420    3.8790 C.ar  201  QPL201      0.0388
      7  C20      -43.6940  -26.2450    0.1460 C.ar  201  QPL201      0.1204
      8  C19      -43.9360  -27.4750    0.7780 C.ar  201  QPL201     -0.0003
      9  C02      -53.1960  -29.7020    7.1530 C.3   201  QPL201      0.1018
     10  C03      -51.8580  -29.5570    6.4410 C.ar  201  QPL201      0.1338
     11  C05      -50.3380  -29.3940    4.9320 C.ar  201  QPL201      0.0899
     12  C06      -49.7160  -29.3040    6.1770 C.ar  201  QPL201      0.0663
     13  C08      -48.3290  -29.1400    6.2950 C.ar  201  QPL201     -0.0355
     14  C09      -47.5590  -29.0690    5.1240 C.ar  201  QPL201     -0.0476
     15  C22      -44.7110  -25.6900   -0.6170 C.ar  201  QPL201     -0.0199
     16  C23      -45.9450  -26.3130   -0.7720 C.ar  201  QPL201     -0.0580
     17  C24      -46.1920  -27.5280   -0.1470 C.ar  201  QPL201     -0.0563
     18  C25      -45.1860  -28.1020    0.6230 C.ar  201  QPL201     -0.0199
     19  C27      -49.5740  -29.3190    3.7710 C.ar  201  QPL201     -0.0221
     20  N04      -51.6590  -29.5510    5.1310 N.ar  201  QPL201     -0.2301
     21  N07      -50.7100  -29.4120    7.0770 N.ar  201  QPL201     -0.3400
     22  N12      -45.9290  -29.3810    2.6460 N.am  201  QPL201     -0.3039
     23  O01      -54.1900  -30.2190    6.2210 O.3   201  QPL201     -0.3874
     24  O16      -43.8970  -31.7260    2.9730 O.co2 201  QPL201     -0.5495
     25  O17      -43.0300  -29.9930    3.9470 O.co2 201  QPL201     -0.5495
     26  O21      -42.4830  -25.5890    0.2550 O.3   201  QPL201     -0.5065
     27  O26      -47.9890  -28.9860    1.4980 O.2   201  QPL201     -0.2702
     28 H182      -42.0240  -28.4240    1.2350 H     201  QPL201      0.0321
     29 H181      -43.0300  -27.9520    2.6980 H     201  QPL201      0.0321
     30 H141      -43.2930  -30.2910    0.8010 H     201  QPL201      0.0385
     31 H131      -45.5450  -30.2550    0.8490 H     201  QPL201      0.0555
     32 H022      -53.0790  -30.3730    7.9820 H     201  QPL201      0.0638
     33 H021      -53.5120  -28.7240    7.4970 H     201  QPL201      0.0638
     34 H081      -47.8860  -29.0750    7.2820 H     201  QPL201      0.0639
     35 H091      -46.4920  -28.9360    5.1880 H     201  QPL201      0.0626
     36 H221      -44.5630  -24.7540   -1.1230 H     201  QPL201      0.0654
     37 H231      -46.6950  -25.8810   -1.3480 H     201  QPL201      0.0619
     38 H241      -47.1750  -28.0360   -0.2640 H     201  QPL201      0.0621
     39 H271      -50.0390  -29.3870    2.7950 H     201  QPL201      0.0647
     40 H071      -50.6270  -29.3890    8.0660 H     201  QPL201      0.1671
     41 H121      -45.5290  -29.5250    3.5490 H     201  QPL201      0.1496
     42 H011      -55.0800  -30.0620    6.6130 H     201  QPL201      0.2100
     43 H211      -42.0410  -25.6540   -0.5670 H     201  QPL201      0.2921
@<TRIPOS>UNITY_ATOM_ATTR
25 1
charge -1
@<TRIPOS>BOND
     1    37    16    1
     2    36    15    1
     3    16    15   ar
     4    16    17   ar
     5    15     7   ar
     6    43    26    1
     7    38    17    1
     8    17    18   ar
     9     7    26    1
    10     7     8   ar
    11    18     8   ar
    12    18     4    1
    13     8     1    1
    14    30     3    1
    15    31     4    1
    16    28     1    1
    17     4     3    1
    18     4    22    1
    19    27     5    2
    20     3     1    1
    21     3     2    1
    22     1    29    1
    23     5    22   am
    24     5     6    1
    25    22    41    1
    26    39    19    1
    27     2    24   ar
    28     2    25   ar
    29    19     6   ar
    30    19    11   ar
    31     6    14   ar
    32    11    20   ar
    33    11    12   ar
    34    14    35    1
    35    14    13   ar
    36    20    10   ar
    37    12    13   ar
    38    12    21   ar
    39    23    42    1
    40    23     9    1
    41    13    34    1
    42    10    21   ar
    43    10     9    1
    44    21    40    1
    45     9    33    1
    46     9    32    1
