@<TRIPOS>MOLECULE
/home/pku/3cl/gett_pdb/8DS0/8DS0_mol2/ligand/8DS0_PEG.pdb
 17 16 0 0 0
SMALL
GASTEIGER

@<TRIPOS>ATOM
      1  C1        -9.8150   65.5530   21.8410 C.3   401  PEG401      0.0676
      2  O1        -8.7380   66.4940   21.8370 O.3   401  PEG401     -0.3927
      3  C2        -9.3410   64.1330   22.0570 C.3   401  PEG401      0.0708
      4  O2       -10.3380   63.2060   21.6260 O.3   401  PEG401     -0.3753
      5  C3       -10.0240   62.5500   20.3980 C.3   401  PEG401      0.0708
      6  C4       -11.0460   61.4930   20.0910 C.3   401  PEG401      0.0676
      7  O4       -11.7710   61.7890   18.8990 O.3   401  PEG401     -0.3927
      8  H11      -10.2740   65.6010   20.9880 H     401  PEG401      0.0580
      9  H12      -10.4300   65.7870   22.5530 H     401  PEG401      0.0580
     10  HO1       -8.9410   67.2540   21.5130 H     401  PEG401      0.2095
     11  H21       -9.1620   63.9960   23.0010 H     401  PEG401      0.0583
     12  H22       -8.5270   63.9870   21.5500 H     401  PEG401      0.0583
     13  H31       -9.1490   62.1370   20.4710 H     401  PEG401      0.0583
     14  H32      -10.0150   63.2030   19.6810 H     401  PEG401      0.0583
     15  H41      -11.6700   61.4340   20.8320 H     401  PEG401      0.0580
     16  H42      -10.5950   60.6410   19.9820 H     401  PEG401      0.0580
     17  HO4      -12.3430   61.1970   18.6870 H     401  PEG401      0.2095
@<TRIPOS>BOND
     1    17     7    1
     2     7     6    1
     3    14     5    1
     4    16     6    1
     5     6     5    1
     6     6    15    1
     7     5    13    1
     8     5     4    1
     9     8     1    1
    10    10     2    1
    11    12     3    1
    12     4     3    1
    13     2     1    1
    14     1     3    1
    15     1     9    1
    16     3    11    1
