@<TRIPOS>MOLECULE
/home/pku/3cl/gett_pdb/7RME/7RME_mol2/ligand/7RME_5Z3.pdb
 27 29 0 0 0
SMALL
GASTEIGER

@<TRIPOS>ATOM
      1  C23      110.7680   -5.5310  107.2840 C.ar  401  5Z3401      0.0865
      2  C5       109.1530   -3.0260  110.9920 C.3   401  5Z3401      0.1152
      3  C10      105.4910   -3.6090  110.7960 C.ar  401  5Z3401      0.0479
      4  C9       108.7980   -5.4090  110.2710 C.3   401  5Z3401      0.1152
      5  C8       107.2820   -5.1890  110.2500 C.3   401  5Z3401      0.1123
      6  C6       107.7560   -3.1970  111.5420 C.3   401  5Z3401      0.1123
      7  C1       111.0850   -5.3520  108.5900 C.ar  401  5Z3401      0.1442
      8  C11      105.0210   -2.6540  111.7180 C.ar  401  5Z3401      0.0154
      9  C12      103.6570   -2.4640  111.9340 C.ar  401  5Z3401      0.0126
     10  C13      102.7210   -3.2170  111.2360 C.ar  401  5Z3401      0.0616
     11  C14      103.1530   -4.1820  110.3060 C.ar  401  5Z3401      0.0832
     12  C15      104.5230   -4.3670  110.0960 C.ar  401  5Z3401      0.0192
     13  C18      112.2850   -7.4600  108.7410 C.ar  401  5Z3401      0.3715
     14  C2       110.6890   -4.1430  109.3980 C.2   401  5Z3401      0.2672
     15  C21      111.2220   -6.7300  106.6060 C.ar  401  5Z3401      0.2848
     16  C24      102.1650   -5.0190  109.5210 C.3   401  5Z3401      0.4194
     17  F25      101.3640   -5.7500  110.3270 F     401  5Z3401     -0.1658
     18  F26      101.3670   -4.2630  108.7250 F     401  5Z3401     -0.1658
     19  F27      102.7610   -5.9040  108.6950 F     401  5Z3401     -0.1658
     20  N17      111.8160   -6.2820  109.2940 N.ar  401  5Z3401     -0.1860
     21  N20      111.9650   -7.6200  107.3970 N.ar  401  5Z3401     -0.1517
     22  N4       109.6030   -4.1760  110.1910 N.am  401  5Z3401     -0.2713
     23  N7       106.8660   -3.8140  110.5590 N.pl3 401  5Z3401     -0.3041
     24  O19      112.9300   -8.2820  109.3910 O.2   401  5Z3401     -0.2425
     25  O22      110.9810   -6.9870  105.4280 O.2   401  5Z3401     -0.2650
     26  O3       111.4150   -3.1430  109.2710 O.2   401  5Z3401     -0.2682
     27 CL16      101.0070   -2.9150  111.5600 Cl    401  5Z3401     -0.0823
@<TRIPOS>BOND
     1    25    15    2
     2    15     1   ar
     3    15    21   ar
     4     1     7   ar
     5    21    13   ar
     6     7    20   ar
     7     7    14    1
     8    19    16    1
     9    18    16    1
    10    13    20   ar
    11    13    24    2
    12    26    14    2
    13    14    22   am
    14    16    11    1
    15    16    17    1
    16    12    11   ar
    17    12     3   ar
    18    22     4    1
    19    22     2    1
    20     5     4    1
    21     5    23    1
    22    11    10   ar
    23    23     3    1
    24    23     6    1
    25     3     8   ar
    26     2     6    1
    27    10    27    1
    28    10     9   ar
    29     8     9   ar
