@<TRIPOS>MOLECULE
/home/pku/3cl/gett_pdb/7MAZ/7MAZ_mol2/ligand/7MAZ_YVD.pdb
 150 53 0 0 0
SMALL
GASTEIGER

@<TRIPOS>ATOM
      1  C10       -8.1540  -10.5640   17.7010 C.2   401  YVD401      0.2794
      2  C10       -8.1960  -10.6570   17.6520 C.3   401  YVD401      0.0000
      3  C13      -10.0190  -15.0150   19.4770 C.3   401  YVD401      0.0000
      4  C13       -9.9380  -15.3360   19.3240 C.3   401  YVD401     -0.0309
      5  C15      -11.3150  -17.2640   18.9210 C.2   401  YVD401      0.1821
      6  C15      -12.5220  -15.7240   18.7200 C.3   401  YVD401      0.1569
      7  C20      -13.1770  -18.4940   18.1680 C.3   401  YVD401      0.0801
      8  C20      -14.9280  -15.4700   18.6200 C.3   401  YVD401      0.1091
      9  C21      -14.4960  -17.7160   18.3870 C.3   401  YVD401     -0.0386
     10  C21      -15.1630  -14.2170   17.7420 C.3   401  YVD401     -0.0681
     11  C22       -9.9260  -10.1460   16.1860 C.3   401  YVD401     -0.0309
     12  C22      -10.0300  -10.2560   16.1930 C.3   401  YVD401     -0.0309
     13  C24      -13.2700  -12.0010   26.8950 C.3   401  YVD401      0.2312
     14  C24      -13.3850  -12.0530   26.8510 C.3   401  YVD401      0.0000
     15  C26      -14.3960  -12.3160   24.5760 C.3   401  YVD401      0.0000
     16  C26      -14.4000  -12.4280   24.4850 C.3   401  YVD401     -0.0309
     17  C28      -11.8970  -13.1130   25.0220 C.3   401  YVD401     -0.0309
     18  C28      -11.8770  -13.0690   25.0150 C.3   401  YVD401      0.0000
     19  C01      -12.6000   -9.7180   21.5190 C.3   401  YVD401      0.0000
     20  C01      -12.5960   -9.7320   21.4590 C.2   401  YVD401      0.2794
     21  C04      -12.3170  -12.1740   22.0740 C.3   401  YVD401      0.0000
     22  C04      -12.2110  -12.2010   21.9680 C.3   401  YVD401     -0.0309
     23  C05      -12.9920  -13.4040   22.6710 C.3   401  YVD401     -0.0309
     24  C05      -12.8510  -13.4290   22.6140 C.3   401  YVD401     -0.0309
     25  C07      -10.1750  -13.5260   19.2180 C.3   401  YVD401     -0.0309
     26  C07      -10.1570  -13.8000   19.0620 C.3   401  YVD401     -0.0309
     27  C08       -8.8880  -12.7270   18.7790 C.3   401  YVD401     -0.0309
     28  C08       -8.9240  -12.9570   18.5370 C.3   401  YVD401     -0.0309
     29  C09       -9.2850  -11.2620   18.2980 C.3   401  YVD401     -0.0309
     30  C09       -9.2850  -11.4160   18.2790 C.3   401  YVD401      0.0000
     31  C14      -11.4040  -15.8070   19.5140 C.3   401  YVD401      0.0000
     32  C14      -11.3200  -16.0700   19.6530 C.3   401  YVD401     -0.0309
     33  C18      -11.9370  -12.5750   20.6730 C.3   401  YVD401      0.0000
     34  C18      -11.8730  -12.6500   20.5590 C.2   401  YVD401      0.2794
     35  C23      -10.2860  -11.2710   17.1730 C.3   401  YVD401     -0.0309
     36  C23      -10.4370  -11.2320   17.3180 C.3   401  YVD401     -0.0309
     37  C25      -14.4690  -11.8370   25.9980 C.3   401  YVD401     -0.0309
     38  C25      -14.5630  -11.9580   25.9090 C.3   401  YVD401     -0.0309
     39  C27      -13.1070  -12.9610   24.1140 C.3   401  YVD401      0.0000
     40  C27      -13.0560  -12.9870   24.0570 C.3   401  YVD401      0.0000
     41  C29      -11.9710  -12.6280   26.4490 C.3   401  YVD401     -0.0309
     42  C29      -12.0360  -12.5990   26.4430 C.3   401  YVD401      0.0000
     43  C31      -13.4280   -8.4510   21.3070 C.3   401  YVD401      0.0000
     44  C31      -13.4600   -8.4760   21.3060 C.3   401  YVD401     -0.0309
     45  C33      -14.2170   -8.0320   22.5600 C.3   401  YVD401     -0.0309
     46  C33      -14.2290   -8.0960   22.5880 C.3   401  YVD401     -0.0309
     47  C34      -11.6370   -6.8740   26.1470 C.3   401  YVD401      0.0000
     48  C34      -11.6250   -6.9030   26.1660 C.3   401  YVD401      0.2312
     49  C35      -11.9660   -5.8140   25.1000 C.3   401  YVD401     -0.0309
     50  C35      -11.9510   -5.8550   25.1020 C.3   401  YVD401      0.0000
     51  C36      -12.8230   -6.1910   23.8990 C.3   401  YVD401     -0.0309
     52  C36      -12.8170   -6.2440   23.9080 C.3   401  YVD401      0.0000
     53  C37      -13.3310   -7.6180   23.7560 C.3   401  YVD401      0.0000
     54  C37      -13.3350   -7.6720   23.7800 C.3   401  YVD401      0.0000
     55  C38      -13.0000   -8.6730   24.8160 C.3   401  YVD401      0.0000
     56  C38      -13.0070   -8.7160   24.8570 C.3   401  YVD401     -0.0309
     57  C39      -12.1520   -8.2970   26.0140 C.3   401  YVD401      0.0000
     58  C39      -12.1510   -8.3260   26.0500 C.3   401  YVD401     -0.0309
     59  F30      -13.3900  -11.5450   28.1310 F     401  YVD401      0.0000
     60  F30      -13.5570  -11.6220   28.0920 F     401  YVD401     -0.2312
     61  F40      -10.8820   -6.5260   27.1890 F     401  YVD401     -0.2312
     62  F40      -10.8640   -6.5460   27.2060 F     401  YVD401      0.0000
     63  N02      -13.1670  -11.0070   21.9280 N.3   401  YVD401     -0.1629
     64  N02      -13.1040  -11.0500   21.8760 N.3   401  YVD401      0.0000
     65  N06      -10.5910  -13.0900   20.5120 N.3   401  YVD401     -0.1629
     66  N06      -10.5670  -13.2800   20.3530 N.3   401  YVD401      0.0000
     67  N11       -8.5380   -9.8860   16.4390 N.3   401  YVD401     -0.1629
     68  N11       -8.6400   -9.9560   16.4160 N.3   401  YVD401      0.0000
     69  N32      -12.4980   -7.4490   20.8760 N.3   401  YVD401     -0.1629
     70  N32      -12.5550   -7.4460   20.8790 N.3   401  YVD401     -0.1629
     71  O03      -11.4630   -9.6670   21.3150 O.2   401  YVD401     -0.2794
     72  O03      -11.4700   -9.6470   21.1930 O.3   401  YVD401      0.0000
     73  O12       -7.0870  -10.4850   18.1210 O.3   401  YVD401      0.0000
     74  O12       -7.1110  -10.5390   18.0350 O.2   401  YVD401     -0.2794
     75  O16      -12.3130  -18.2010   19.2300 O.3   401  YVD401     -0.2350
     76  O16      -13.7300  -15.3390   19.3390 O.3   401  YVD401     -0.2323
     77  O17      -10.4420  -17.6270   18.2200 O.2   401  YVD401     -0.2930
     78  O17      -12.4140  -15.7560   17.5520 O.3   401  YVD401     -0.2253
     79  O19      -12.6960  -12.4540   19.7960 O.2   401  YVD401     -0.2794
     80  O19      -12.6470  -12.4910   19.7040 O.3   401  YVD401      0.0000
     81 H131       -9.4490  -15.3970   18.8190 H     401  YVD401      0.0309
     82 H131       -9.5390  -15.7370   18.5600 H     401  YVD401      0.0000
     83 H202      -12.7840  -18.2300   17.3570 H     401  YVD401      0.0589
     84 H202      -14.8800  -16.2300   18.0710 H     401  YVD401      0.0616
     85 H201      -13.3530  -19.4160   18.1490 H     401  YVD401      0.0589
     86 H201      -15.6420  -15.5660   19.2220 H     401  YVD401      0.0616
     87 H212      -14.3400  -16.7970   18.2720 H     401  YVD401      0.0253
     88 H212      -16.0430  -14.2250   17.4140 H     401  YVD401      0.0227
     89 H211      -14.8120  -17.8740   19.2570 H     401  YVD401      0.0253
     90 H211      -14.5600  -14.2230   17.0230 H     401  YVD401      0.0227
     91 H213      -15.1370  -18.0040   17.7640 H     401  YVD401      0.0253
     92 H213      -15.0280  -13.4440   18.2570 H     401  YVD401      0.0227
     93 H222      -10.0490  -10.4350   15.3010 H     401  YVD401      0.0309
     94 H222      -10.1410  -10.6650   15.3550 H     401  YVD401      0.0000
     95 H221      -10.4390   -9.3800   16.3610 H     401  YVD401      0.0000
     96 H221      -10.5420   -9.4700   16.2460 H     401  YVD401      0.0309
     97 H261      -15.1180  -12.2200   23.9990 H     401  YVD401      0.0309
     98 H261      -15.1050  -12.3740   23.8830 H     401  YVD401      0.0000
     99 H281      -11.1160  -13.4980   24.6990 H     401  YVD401      0.0309
    100 H281      -11.0610  -13.4040   24.7220 H     401  YVD401      0.0000
    101 H041      -11.5470  -11.9530   22.5630 H     401  YVD401      0.0309
    102 H041      -11.4260  -11.9650   22.4270 H     401  YVD401      0.0000
    103 H051      -12.4460  -14.1640   22.5920 H     401  YVD401      0.0309
    104 H051      -12.2710  -14.1660   22.5730 H     401  YVD401      0.0000
    105 H052      -13.8380  -13.5470   22.2900 H     401  YVD401      0.0000
    106 H052      -13.6740  -13.6280   22.2070 H     401  YVD401      0.0309
    107 H071      -10.8660  -13.3900   18.5980 H     401  YVD401      0.0309
    108 H071      -10.8660  -13.6960   18.4570 H     401  YVD401      0.0309
    109 H081       -8.2980  -12.6650   19.5070 H     401  YVD401      0.0000
    110 H081       -8.2350  -13.0030   19.1730 H     401  YVD401      0.0309
    111 H082       -8.4650  -13.1820   18.0750 H     401  YVD401      0.0309
    112 H082       -8.6190  -13.3350   17.7330 H     401  YVD401      0.0000
    113 H091       -9.6210  -10.7640   19.0190 H     401  YVD401      0.0000
    114 H091       -9.5050  -11.0110   19.0970 H     401  YVD401      0.0309
    115 H141      -11.6930  -15.8640   20.4060 H     401  YVD401      0.0309
    116 H141      -11.1750  -16.9970   19.6090 H     401  YVD401      0.1109
    117 H142      -12.0410  -15.3230   19.0230 H     401  YVD401      0.0684
    118 H142      -11.5640  -15.8530   20.5330 H     401  YVD401      0.0000
    119 H232      -10.2530  -12.0980   16.7310 H     401  YVD401      0.0000
    120 H232      -10.6630  -12.0610   16.9390 H     401  YVD401      0.0309
    121 H231      -11.1470  -11.1240   17.5170 H     401  YVD401      0.0309
    122 H231      -11.1750  -10.8820   17.7810 H     401  YVD401      0.0000
    123 H251      -15.2450  -11.4400   26.3200 H     401  YVD401      0.0309
    124 H251      -15.3750  -11.6140   26.2020 H     401  YVD401      0.0309
    125 H291      -11.2500  -12.7130   27.0280 H     401  YVD401      0.0000
    126 H291      -11.3310  -12.6430   27.0460 H     401  YVD401      0.0309
    127 H311      -14.0380   -8.6080   20.6110 H     401  YVD401      0.0309
    128 H311      -14.0830   -8.6270   20.6200 H     401  YVD401      0.0000
    129 H331      -14.7580   -8.7520   22.8260 H     401  YVD401      0.0309
    130 H331      -14.7450   -8.8340   22.8540 H     401  YVD401      0.0000
    131 H332      -14.7710   -7.3080   22.3350 H     401  YVD401      0.0000
    132 H332      -14.8090   -7.3860   22.3860 H     401  YVD401      0.0309
    133 H351      -11.6450   -4.9470   25.1930 H     401  YVD401      0.0000
    134 H351      -11.6260   -4.9880   25.1820 H     401  YVD401      0.0309
    135 H361      -13.0300   -5.5540   23.2550 H     401  YVD401      0.0000
    136 H361      -13.0200   -5.6150   23.2560 H     401  YVD401      0.0309
    137 H381      -13.3210   -9.5400   24.7260 H     401  YVD401      0.0309
    138 H381      -13.3320   -9.5830   24.7810 H     401  YVD401      0.0000
    139 H391      -11.9400   -8.9330   26.6570 H     401  YVD401      0.0309
    140 H391      -11.9420   -8.9550   26.7010 H     401  YVD401      0.0000
    141 H021      -14.0200  -11.0750   22.0720 H     401  YVD401      0.0000
    142 H021      -13.9450  -11.1440   22.0680 H     401  YVD401      0.1629
    143 H061      -10.0650  -13.1740   21.1980 H     401  YVD401      0.0000
    144 H061      -10.0430  -13.3890   21.0360 H     401  YVD401      0.1629
    145 H111       -8.0130   -9.4150   15.9330 H     401  YVD401      0.0000
    146 H111       -8.1450   -9.4550   15.9090 H     401  YVD401      0.1629
    147 H322      -11.7720   -7.5050   21.3480 H     401  YVD401      0.0000
    148 H322      -11.8300   -7.4820   21.3540 H     401  YVD401      0.1629
    149 H321      -12.8510   -6.6630   20.9800 H     401  YVD401      0.1629
    150 H321      -12.9300   -6.6700   20.9810 H     401  YVD401      0.0000
@<TRIPOS>BOND
     1    93    12    1
     2   146    67    1
     3    11    96    1
     4   120    35    1
     5    90    10    1
     6    36   121    1
     7    83     7    1
     8    88    10    1
     9    78     6    1
    10     1    74    2
    11    10    92    1
    12    91     9    1
    13    84     8    1
    14   111    28    1
    15    85     7    1
    16     7     9    1
    17     7    75    1
    18    77     5    2
    19    87     9    1
    20    29   114    1
    21     9    89    1
    22   108    26    1
    23   107    25    1
    24     8    86    1
    25     8    76    1
    26     6   117    1
    27    27   110    1
    28    81     4    1
    29     5   116    1
    30    32   115    1
    31    79    34    2
    32    65   144    1
    33   127    44    1
    34    69   148    1
    35    70   149    1
    36    71    20    2
    37    63   142    1
    38    22   101    1
    39   106    23    1
    40   132    45    1
    41    46   129    1
    42   103    24    1
    43   136    51    1
    44    97    16    1
    45    99    17    1
    46   137    56    1
    47    49   134    1
    48    38   124    1
    49    37   123    1
    50    58   139    1
    51    48    61    1
    52    41   126    1
    53    13    60    1
