@<TRIPOS>MOLECULE
/home/pku/3cl/gett_pdb/7JW8/7JW8_mol2/ligand/7JW8_TG3.pdb
 45 46 0 0 0
SMALL
GASTEIGER

@<TRIPOS>ATOM
      1  C01       23.5560   -8.5500  -43.3440 C.3   401  TG3401      0.0513
      2  C02       23.2290   -9.7240  -42.4210 C.3   401  TG3401      0.2086
      3  O03       24.4190  -10.1930  -41.8220 O.3   401  TG3401     -0.4485
      4  C04       24.2600  -11.4290  -41.1530 C.2   401  TG3401      0.3170
      5  O05       23.1700  -11.7460  -40.8130 O.2   401  TG3401     -0.2501
      6  C06       25.5040  -12.3270  -40.8860 C.3   401  TG3401      0.1113
      7  C07       25.2170  -13.8580  -40.9230 C.3   401  TG3401      0.0333
      8  C08       24.5480  -14.3070  -42.2170 C.3   401  TG3401      0.0964
      9  C09       23.9730  -15.7230  -42.0390 C.3   401  TG3401      0.0309
     10  C10       22.9350  -16.0230  -43.1770 C.3   401  TG3401      0.0817
     11  C11       21.8550  -14.9770  -43.2250 C.3   401  TG3401      0.0326
     12  C12       20.6570  -15.8340  -43.7870 C.3   401  TG3401      0.1156
     13  N13       20.9850  -17.2490  -43.2840 N.am  401  TG3401     -0.2054
     14  C14       22.2780  -17.3320  -42.9450 C.2   401  TG3401      0.2410
     15  O15       22.8310  -18.2870  -42.5340 O.2   401  TG3401     -0.2734
     16  N16       25.5390  -14.2610  -43.3050 N.am  401  TG3401     -0.2057
     17  C17       25.3920  -13.4190  -44.3240 C.2   401  TG3401      0.2612
     18  O18       24.4490  -12.7060  -44.3890 O.2   401  TG3401     -0.2715
     19  C19       26.4590  -13.3990  -45.4400 C.3   401  TG3401      0.1728
     20  C20       27.2910  -12.1300  -45.3590 C.3   401  TG3401      0.0311
     21  C21       28.4500  -12.1900  -46.3960 C.3   401  TG3401      0.0022
     22  C22       29.2930  -13.4370  -46.1730 C.3   401  TG3401      0.0001
     23  C23       29.3510  -10.9750  -46.2280 C.3   401  TG3401      0.0001
     24  N24       25.7950  -13.5080  -46.7430 N.am  401  TG3401     -0.1963
     25  C25       25.0890  -14.6020  -47.0740 C.2   401  TG3401      0.2642
     26  O26       24.9540  -15.5240  -46.3300 O.2   401  TG3401     -0.2714
     27  C27       24.4190  -14.6560  -48.4860 C.3   401  TG3401      0.2029
     28  N28       24.9580  -15.8200  -49.2140 N.am  401  TG3401     -0.1585
     29  C29       25.6980  -15.5110  -50.2700 C.2   401  TG3401      0.4219
     30  O30       25.8600  -14.3860  -50.6070 O.2   401  TG3401     -0.2245
     31  O31       26.2480  -16.5140  -50.9350 O.3   401  TG3401     -0.4285
     32  C32       26.8610  -16.1640  -52.1540 C.3   401  TG3401      0.2368
     33  C33       25.8240  -16.0650  -53.3030 C.ar  401  TG3401      0.0213
     34  C34       25.4990  -17.1970  -54.0390 C.ar  401  TG3401     -0.0007
     35  C35       24.5850  -17.1020  -55.0820 C.ar  401  TG3401     -0.0002
     36  C36       23.9850  -15.8840  -55.3830 C.ar  401  TG3401     -0.0000
     37  C37       24.3130  -14.7490  -54.6510 C.ar  401  TG3401     -0.0002
     38  C38       25.2340  -14.8410  -53.6130 C.ar  401  TG3401     -0.0007
     39  C39       22.8850  -14.7870  -48.3540 C.3   401  TG3401      0.1439
     40  C40       22.3930  -13.9180  -47.2160 C.3   401  TG3401      0.0344
     41  O41       22.3110  -14.3810  -49.5760 O.3   401  TG3401     -0.3587
     42  C42       21.3970  -15.2980  -50.1720 C.3   401  TG3401      0.0930
     43  C43       20.4820  -14.5030  -51.1070 C.3   401  TG3401      0.0296
     44  C44       20.5310  -16.0240  -49.1350 C.3   401  TG3401      0.0296
     45  C45       22.1850  -16.3370  -50.9620 C.3   401  TG3401      0.0296
@<TRIPOS>BOND
     1    36    35   ar
     2    36    37   ar
     3    35    34   ar
     4    37    38   ar
     5    34    33   ar
     6    38    33   ar
     7    33    32    1
     8    32    31    1
     9    43    42    1
    10    45    42    1
    11    31    29    1
    12    30    29    2
    13    29    28   am
    14    42    41    1
    15    42    44    1
    16    41    39    1
    17    28    27    1
    18    27    39    1
    19    27    25    1
    20    39    40    1
    21    25    24   am
    22    25    26    2
    23    24    19    1
    24    21    23    1
    25    21    22    1
    26    21    20    1
    27    19    20    1
    28    19    17    1
    29    18    17    2
    30    17    16   am
    31    12    13    1
    32    12    11    1
    33     1     2    1
    34    16     8    1
    35    13    14   am
    36    11    10    1
    37    10    14    1
    38    10     9    1
    39    14    15    2
    40     2     3    1
    41     8     9    1
    42     8     7    1
    43     3     4    1
    44     4     6    1
    45     4     5    2
    46     7     6    1
