@<TRIPOS>MOLECULE
/home/pku/3cl/gett_pdb/5RV8/5RV8_mol2/ligand/5RV8_8EJ.pdb
 18 18 0 0 0
SMALL
GASTEIGER

@<TRIPOS>ATOM
      1  N1       -51.3380  -29.4150    5.0120 N.ar  201  8EJ201     -0.2594
      2  C4       -49.0380  -29.3470    6.5180 C.ar  201  8EJ201     -0.0465
      3  C5       -49.0050  -29.2440    5.1370 C.ar  201  8EJ201      0.0546
      4  C6       -50.1900  -29.2800    4.4230 C.ar  201  8EJ201      0.0399
      5  C7       -47.7400  -29.0880    4.3460 C.2   201  8EJ201      0.2430
      6  C1       -52.7870  -29.7100    6.9120 C.3   201  8EJ201     -0.0224
      7  C2       -51.4070  -29.5360    6.3120 C.ar  201  8EJ201      0.0383
      8  C3       -50.2770  -29.4950    7.1140 C.ar  201  8EJ201     -0.0399
      9  N2       -46.4490  -29.0800    5.0030 N.am  201  8EJ201     -0.3253
     10  O1       -47.8280  -29.0120    3.1660 O.2   201  8EJ201     -0.2704
     11  H1       -48.2570  -29.3310    7.0230 H     201  8EJ201      0.0626
     12  H2       -50.1640  -29.2000    3.5070 H     201  8EJ201      0.0837
     13  H3       -52.8310  -30.5580    7.3810 H     201  8EJ201      0.0292
     14  H4       -53.4510  -29.6960    6.2050 H     201  8EJ201      0.0292
     15  H5       -52.9630  -28.9870    7.5340 H     201  8EJ201      0.0292
     16  H6       -50.3490  -29.5850    8.0370 H     201  8EJ201      0.0636
     17  H7       -45.7310  -28.9950    4.5380 H     201  8EJ201      0.1453
     18  H8       -46.4020  -29.1440    5.8590 H     201  8EJ201      0.1453
@<TRIPOS>BOND
     1    10     5    2
     2    12     4    1
     3     5     9   am
     4     5     3    1
     5     4     1   ar
     6     4     3   ar
     7    17     9    1
     8     9    18    1
     9     1     7   ar
    10     3     2   ar
    11    14     6    1
    12     7     6    1
    13     7     8   ar
    14     2    11    1
    15     2     8   ar
    16     6    13    1
    17     6    15    1
    18     8    16    1
