YV7
  -OEChem-02242320043D

 76 78  0     1  0  0  0  0  0999 V2000
   -4.3690   -3.5800   -0.2430 C   0  0  0  0  0  0  0  0  0  0  0  0
   -4.4780    0.1020    0.3470 C   0  0  0  0  0  0  0  0  0  0  0  0
   -5.4330    2.0540   -0.8480 C   0  0  0  0  0  0  0  0  0  0  0  0
   -6.6230    3.8990   -1.7750 C   0  0  0  0  0  0  0  0  0  0  0  0
   -6.4740    4.9420   -2.8850 C   0  0  0  0  0  0  0  0  0  0  0  0
   -5.4500   -5.0850    1.1570 C   0  0  0  0  0  0  0  0  0  0  0  0
    3.6310    3.9860    1.0670 C   0  0  0  0  0  0  0  0  0  0  0  0
    1.3650    3.2910    1.4150 C   0  0  0  0  0  0  0  0  0  0  0  0
    2.6710    2.2880   -0.3240 C   0  0  0  0  0  0  0  0  0  0  0  0
    2.7480   -0.2890    0.9790 C   0  0  0  0  0  0  0  0  0  0  0  0
    0.3710    0.2120    0.7910 C   0  0  1  0  0  0  0  0  0  0  0  0
    0.3120    1.5180   -0.0030 C   0  0  0  0  0  0  0  0  0  0  0  0
   -3.2850   -0.8530    0.4150 C   0  0  2  0  0  0  0  0  0  0  0  0
   -3.5590   -1.9380    1.4590 C   0  0  0  0  0  0  0  0  0  0  0  0
   -4.7370   -2.8010    1.0000 C   0  0  2  0  0  0  0  0  0  0  0  0
   -4.2590    1.1120   -0.7810 C   0  0  0  0  0  0  0  0  0  0  0  0
   -0.8630   -0.6060    0.5070 C   0  0  0  0  0  0  0  0  0  0  0  0
   -5.0510   -3.8900    2.0510 C   0  0  0  0  0  0  0  0  0  0  0  0
    2.4380    4.0900    1.7620 C   0  0  0  0  0  0  0  0  0  0  0  0
    1.4820    2.3890    0.3750 C   0  0  0  0  0  0  0  0  0  0  0  0
    3.7460    3.0860    0.0210 C   0  0  0  0  0  0  0  0  0  0  0  0
    3.9720   -1.0690    0.5720 C   0  0  1  0  0  0  0  0  0  0  0  0
    4.5310   -0.4960   -0.7320 C   0  0  0  0  0  0  0  0  0  0  0  0
    7.7870   -2.9170   -2.0690 C   0  0  0  0  0  0  0  0  0  0  0  0
    8.0220   -1.8450   -1.2270 C   0  0  0  0  0  0  0  0  0  0  0  0
    6.9690   -1.0620   -0.7950 C   0  0  0  0  0  0  0  0  0  0  0  0
    5.6800   -1.3500   -1.2040 C   0  0  0  0  0  0  0  0  0  0  0  0
    5.4450   -2.4210   -2.0450 C   0  0  0  0  0  0  0  0  0  0  0  0
    6.4990   -3.2010   -2.4820 C   0  0  0  0  0  0  0  0  0  0  0  0
    4.6810    4.7660    1.4050 F   0  0  0  0  0  0  0  0  0  0  0  0
    1.5610   -0.5460    0.3960 N   0  0  0  0  0  0  0  0  0  0  0  0
   -2.0820   -0.1070    0.7910 N   0  0  0  0  0  0  0  0  0  0  0  0
   -4.7800   -4.8550   -0.1280 N   0  0  0  0  0  0  0  0  0  0  0  0
    4.9900   -0.9680    1.6270 N   0  0  0  0  0  0  0  0  0  0  0  0
    2.8320    0.5700    1.8310 O   0  0  0  0  0  0  0  0  0  0  0  0
   -3.7930   -3.1200   -1.2060 O   0  0  0  0  0  0  0  0  0  0  0  0
   -5.4600    3.0300   -1.7690 O   0  0  0  0  0  0  0  0  0  0  0  0
   -6.3520    1.9300   -0.0730 O   0  0  0  0  0  0  0  0  0  0  0  0
   -0.7590   -1.7120    0.0210 O   0  0  0  0  0  0  0  0  0  0  0  0
   -5.3880   -0.4660    0.1550 H   0  0  0  0  0  0  0  0  0  0  0  0
   -4.5740    0.6320    1.2950 H   0  0  0  0  0  0  0  0  0  0  0  0
   -6.7050    4.4030   -0.8120 H   0  0  0  0  0  0  0  0  0  0  0  0
   -7.5190    3.3060   -1.9520 H   0  0  0  0  0  0  0  0  0  0  0  0
   -7.3470    5.5950   -2.8890 H   0  0  0  0  0  0  0  0  0  0  0  0
   -5.5770    5.5360   -2.7070 H   0  0  0  0  0  0  0  0  0  0  0  0
   -6.3920    4.4390   -3.8480 H   0  0  0  0  0  0  0  0  0  0  0  0
   -5.1100   -6.0220    1.5970 H   0  0  0  0  0  0  0  0  0  0  0  0
   -6.5310   -5.1020    1.0210 H   0  0  0  0  0  0  0  0  0  0  0  0
    0.4350    3.3720    1.9570 H   0  0  0  0  0  0  0  0  0  0  0  0
    2.7600    1.5850   -1.1390 H   0  0  0  0  0  0  0  0  0  0  0  0
    0.4210    0.4360    1.8570 H   0  0  0  0  0  0  0  0  0  0  0  0
    0.3520    1.2970   -1.0690 H   0  0  0  0  0  0  0  0  0  0  0  0
   -0.6180    2.0400    0.2260 H   0  0  0  0  0  0  0  0  0  0  0  0
   -3.1350   -1.3170   -0.5600 H   0  0  0  0  0  0  0  0  0  0  0  0
   -2.6740   -2.5630    1.5740 H   0  0  0  0  0  0  0  0  0  0  0  0
   -3.8020   -1.4710    2.4130 H   0  0  0  0  0  0  0  0  0  0  0  0
   -5.6140   -2.1810    0.8160 H   0  0  0  0  0  0  0  0  0  0  0  0
   -3.3490    1.6800   -0.5890 H   0  0  0  0  0  0  0  0  0  0  0  0
   -4.1630    0.5830   -1.7290 H   0  0  0  0  0  0  0  0  0  0  0  0
   -5.8800   -3.5900    2.6930 H   0  0  0  0  0  0  0  0  0  0  0  0
   -4.1660   -4.1240    2.6430 H   0  0  0  0  0  0  0  0  0  0  0  0
    2.3470    4.7950    2.5750 H   0  0  0  0  0  0  0  0  0  0  0  0
    4.6740    3.0070   -0.5250 H   0  0  0  0  0  0  0  0  0  0  0  0
    3.7040   -2.1150    0.4240 H   0  0  0  0  0  0  0  0  0  0  0  0
    3.7490   -0.4890   -1.4910 H   0  0  0  0  0  0  0  0  0  0  0  0
    4.8810    0.5220   -0.5610 H   0  0  0  0  0  0  0  0  0  0  0  0
    8.6110   -3.5290   -2.4070 H   0  0  0  0  0  0  0  0  0  0  0  0
    9.0290   -1.6200   -0.9080 H   0  0  0  0  0  0  0  0  0  0  0  0
    7.1520   -0.2260   -0.1370 H   0  0  0  0  0  0  0  0  0  0  0  0
    4.4380   -2.6470   -2.3650 H   0  0  0  0  0  0  0  0  0  0  0  0
    6.3160   -4.0380   -3.1400 H   0  0  0  0  0  0  0  0  0  0  0  0
    1.4940   -1.2340   -0.2860 H   0  0  0  0  0  0  0  0  0  0  0  0
   -2.1630    0.7460    1.2460 H   0  0  0  0  0  0  0  0  0  0  0  0
   -4.6450   -5.5360   -0.8050 H   0  0  0  0  0  0  0  0  0  0  0  0
    5.2550   -0.0070    1.7830 H   0  0  0  0  0  0  0  0  0  0  0  0
    4.6680   -1.3980    2.4810 H   0  0  0  0  0  0  0  0  0  0  0  0
  4  5  1  0  0  0  0
  6 33  1  0  0  0  0
  6 18  1  0  0  0  0
  4 37  1  0  0  0  0
  3 38  2  0  0  0  0
  1 33  1  0  0  0  0
 15 18  1  0  0  0  0
  3 37  1  0  0  0  0
  3 16  1  0  0  0  0
  1 15  1  0  0  0  0
  1 36  2  0  0  0  0
 14 15  1  0  0  0  0
 13 14  1  0  0  0  0
  2 16  1  0  0  0  0
  2 13  1  0  0  0  0
 13 32  1  0  0  0  0
 17 39  2  0  0  0  0
 17 32  1  0  0  0  0
 11 17  1  0  0  0  0
 22 34  1  0  0  0  0
 11 31  1  0  0  0  0
 10 31  1  0  0  0  0
 10 22  1  0  0  0  0
 22 23  1  0  0  0  0
 11 12  1  0  0  0  0
 10 35  2  0  0  0  0
 12 20  1  0  0  0  0
 23 27  1  0  0  0  0
  9 20  2  0  0  0  0
  8 20  1  0  0  0  0
  9 21  1  0  0  0  0
 27 28  2  0  0  0  0
 26 27  1  0  0  0  0
 28 29  1  0  0  0  0
  8 19  2  0  0  0  0
 25 26  2  0  0  0  0
  7 21  2  0  0  0  0
 24 29  2  0  0  0  0
  7 19  1  0  0  0  0
  7 30  1  0  0  0  0
 24 25  1  0  0  0  0
  2 40  1  0  0  0  0
  2 41  1  0  0  0  0
  4 42  1  0  0  0  0
  4 43  1  0  0  0  0
  5 44  1  0  0  0  0
  5 45  1  0  0  0  0
  5 46  1  0  0  0  0
  6 47  1  0  0  0  0
  6 48  1  0  0  0  0
  8 49  1  0  0  0  0
  9 50  1  0  0  0  0
 11 51  1  0  0  0  0
 12 52  1  0  0  0  0
 12 53  1  0  0  0  0
 13 54  1  0  0  0  0
 14 55  1  0  0  0  0
 14 56  1  0  0  0  0
 15 57  1  0  0  0  0
 16 58  1  0  0  0  0
 16 59  1  0  0  0  0
 18 60  1  0  0  0  0
 18 61  1  0  0  0  0
 19 62  1  0  0  0  0
 21 63  1  0  0  0  0
 22 64  1  0  0  0  0
 23 65  1  0  0  0  0
 23 66  1  0  0  0  0
 24 67  1  0  0  0  0
 25 68  1  0  0  0  0
 26 69  1  0  0  0  0
 28 70  1  0  0  0  0
 29 71  1  0  0  0  0
 31 72  1  0  0  0  0
 32 73  1  0  0  0  0
 33 74  1  0  0  0  0
 34 75  1  0  0  0  0
 34 76  1  0  0  0  0
M  END
> <OPENEYE_ISO_SMILES>
CCOC(=O)CC[C@H](C[C@@H]1CCNC1=O)NC(=O)[C@H](Cc2ccc(cc2)F)NC(=O)[C@@H](Cc3ccccc3)N

> <OPENEYE_INCHI>
InChI=1S/C29H37FN4O5/c1-2-39-26(35)13-12-23(18-21-14-15-32-27(21)36)33-29(38)25(17-20-8-10-22(30)11-9-20)34-28(37)24(31)16-19-6-4-3-5-7-19/h3-11,21,23-25H,2,12-18,31H2,1H3,(H,32,36)(H,33,38)(H,34,37)/t21-,23+,24+,25-/m0/s1

> <OPENEYE_INCHIKEY>
OAHGUBRTPCCHJJ-QVQNZMNRSA-N

> <FORMULA>
C29H37FN4O5

$$$$
