IRW
  -OEChem-02242320023D

 75 77  0     1  0  0  0  0  0999 V2000
   -4.6600   -1.2730    1.8000 C   0  0  1  0  0  0  0  0  0  0  0  0
   -4.3790    0.0900    1.1640 C   0  0  2  0  0  0  0  0  0  0  0  0
   -5.6550    0.6200    0.5080 C   0  0  0  0  0  0  0  0  0  0  0  0
   -5.4090    2.0360   -0.0160 C   0  0  1  0  0  0  0  0  0  0  0  0
   -6.6520    2.5750   -0.6890 C   0  0  0  0  0  0  0  0  0  0  0  0
   -5.8570    4.2950    0.6530 C   0  0  0  0  0  0  0  0  0  0  0  0
   -5.1600    3.0120    1.1570 C   0  0  0  0  0  0  0  0  0  0  0  0
   -2.0340    0.0380    0.5030 C   0  0  0  0  0  0  0  0  0  0  0  0
   -0.9560   -0.1080   -0.5400 C   0  0  2  0  0  0  0  0  0  0  0  0
   -1.0660   -1.4850   -1.1990 C   0  0  0  0  0  0  0  0  0  0  0  0
   -0.0540   -1.5860   -2.3420 C   0  0  0  0  0  0  0  0  0  0  0  0
   -0.0770   -3.0030   -2.9190 C   0  0  0  0  0  0  0  0  0  0  0  0
   -0.4210   -0.5830   -3.4370 C   0  0  0  0  0  0  0  0  0  0  0  0
    1.4180    0.4330   -0.6340 C   0  0  0  0  0  0  0  0  0  0  0  0
    3.7210    0.9990   -0.8970 C   0  0  0  0  0  0  0  0  0  0  0  0
    5.0040    1.0800   -0.0670 C   0  0  1  0  0  0  0  0  0  0  0  0
    6.3020    1.4180   -0.8030 C   0  0  1  0  0  0  0  0  0  0  0  0
    5.6460    2.4570    0.1100 C   0  0  0  0  0  0  0  0  0  0  0  0
    7.5690    0.7650   -0.3140 C   0  0  0  0  0  0  0  0  0  0  0  0
    8.3000   -0.0450   -1.1640 C   0  0  0  0  0  0  0  0  0  0  0  0
    9.4620   -0.6450   -0.7190 C   0  0  0  0  0  0  0  0  0  0  0  0
    9.8950   -0.4350    0.5820 C   0  0  0  0  0  0  0  0  0  0  0  0
   11.4240   -0.7630    2.3730 C   0  0  0  0  0  0  0  0  0  0  0  0
    9.1600    0.3780    1.4330 C   0  0  0  0  0  0  0  0  0  0  0  0
    8.0020    0.9800    0.9810 C   0  0  0  0  0  0  0  0  0  0  0  0
   -6.8820    3.8390   -0.2930 N   0  0  0  0  0  0  0  0  0  0  0  0
   -3.3310   -0.0510    0.1490 N   0  0  0  0  0  0  0  0  0  0  0  0
    0.3580    0.0270    0.0930 N   0  0  0  0  0  0  0  0  0  0  0  0
   -5.7600   -1.1580    2.7050 O   0  0  0  0  0  0  0  0  0  0  0  0
   -7.3410    1.9570   -1.4730 O   0  0  0  0  0  0  0  0  0  0  0  0
    2.6250    0.5570   -0.0530 O   0  0  0  0  0  0  0  0  0  0  0  0
   11.0380   -1.0240    1.0220 O   0  0  0  0  0  0  0  0  0  0  0  0
    1.2830    0.6870   -1.8150 O   0  0  0  0  0  0  0  0  0  0  0  0
   -1.7340    0.2350    1.6620 O   0  0  0  0  0  0  0  0  0  0  0  0
   -5.0670   -2.4730    0.5020 S   0  0  0  0  0  0  0  0  0  0  0  0
   -3.7770   -1.6100    2.3420 H   0  0  0  0  0  0  0  0  0  0  0  0
   -4.0480    0.7880    1.9330 H   0  0  0  0  0  0  0  0  0  0  0  0
   -5.9360   -0.0300   -0.3200 H   0  0  0  0  0  0  0  0  0  0  0  0
   -6.4600    0.6400    1.2430 H   0  0  0  0  0  0  0  0  0  0  0  0
   -4.5650    2.0460   -0.7060 H   0  0  0  0  0  0  0  0  0  0  0  0
   -6.3200    4.8250    1.4850 H   0  0  0  0  0  0  0  0  0  0  0  0
   -5.1380    4.9420    0.1490 H   0  0  0  0  0  0  0  0  0  0  0  0
   -5.6280    2.6490    2.0730 H   0  0  0  0  0  0  0  0  0  0  0  0
   -4.0940    3.1800    1.3060 H   0  0  0  0  0  0  0  0  0  0  0  0
   -1.0770    0.6670   -1.2970 H   0  0  0  0  0  0  0  0  0  0  0  0
   -0.8590   -2.2580   -0.4600 H   0  0  0  0  0  0  0  0  0  0  0  0
   -2.0740   -1.6200   -1.5920 H   0  0  0  0  0  0  0  0  0  0  0  0
    0.9430   -1.3630   -1.9640 H   0  0  0  0  0  0  0  0  0  0  0  0
   -1.0750   -3.2250   -3.2960 H   0  0  0  0  0  0  0  0  0  0  0  0
    0.6440   -3.0750   -3.7330 H   0  0  0  0  0  0  0  0  0  0  0  0
    0.1840   -3.7170   -2.1380 H   0  0  0  0  0  0  0  0  0  0  0  0
   -0.4050    0.4270   -3.0260 H   0  0  0  0  0  0  0  0  0  0  0  0
    0.3000   -0.6550   -4.2520 H   0  0  0  0  0  0  0  0  0  0  0  0
   -1.4190   -0.8050   -3.8150 H   0  0  0  0  0  0  0  0  0  0  0  0
    3.4910    1.9830   -1.3060 H   0  0  0  0  0  0  0  0  0  0  0  0
    3.8600    0.2900   -1.7120 H   0  0  0  0  0  0  0  0  0  0  0  0
    5.0660    0.3850    0.7710 H   0  0  0  0  0  0  0  0  0  0  0  0
    6.2420    1.5820   -1.8780 H   0  0  0  0  0  0  0  0  0  0  0  0
    5.1550    3.3060   -0.3660 H   0  0  0  0  0  0  0  0  0  0  0  0
    6.1310    2.6680    1.0630 H   0  0  0  0  0  0  0  0  0  0  0  0
    7.9620   -0.2090   -2.1770 H   0  0  0  0  0  0  0  0  0  0  0  0
   10.0320   -1.2770   -1.3830 H   0  0  0  0  0  0  0  0  0  0  0  0
   11.5760    0.3080    2.5070 H   0  0  0  0  0  0  0  0  0  0  0  0
   10.6390   -1.1050    3.0480 H   0  0  0  0  0  0  0  0  0  0  0  0
   12.3500   -1.2920    2.5950 H   0  0  0  0  0  0  0  0  0  0  0  0
    9.4960    0.5430    2.4460 H   0  0  0  0  0  0  0  0  0  0  0  0
    7.4320    1.6170    1.6410 H   0  0  0  0  0  0  0  0  0  0  0  0
   -7.6290    4.3790   -0.5930 H   0  0  0  0  0  0  0  0  0  0  0  0
   -3.5720   -0.2090   -0.7770 H   0  0  0  0  0  0  0  0  0  0  0  0
    0.4650   -0.1760    1.0350 H   0  0  0  0  0  0  0  0  0  0  0  0
   -6.5820   -0.8620    2.2900 H   0  0  0  0  0  0  0  0  0  0  0  0
   -5.4460   -3.7370    1.2600 O   0  0  0  0  0  0  0  0  0  0  0  0
   -6.2610   -2.0950   -0.1690 O   0  0  0  0  0  0  0  0  0  0  0  0
   -3.9010   -2.8360   -0.2250 O   0  0  0  0  0  0  0  0  0  0  0  0
   -5.6930   -4.4790    0.6900 H   0  0  0  0  0  0  0  0  0  0  0  0
 17 18  1  0  0  0  0
 16 18  1  0  0  0  0
  5 30  2  0  0  0  0
 16 17  1  0  0  0  0
 17 19  1  0  0  0  0
  5 26  1  0  0  0  0
  4  5  1  0  0  0  0
 15 16  1  0  0  0  0
 19 25  2  0  0  0  0
 24 25  1  0  0  0  0
  6 26  1  0  0  0  0
 15 31  1  0  0  0  0
 19 20  1  0  0  0  0
 14 33  2  0  0  0  0
 22 24  2  0  0  0  0
 14 31  1  0  0  0  0
 14 28  1  0  0  0  0
  3  4  1  0  0  0  0
  4  7  1  0  0  0  0
 20 21  2  0  0  0  0
  6  7  1  0  0  0  0
 21 22  1  0  0  0  0
 22 32  1  0  0  0  0
 11 13  1  0  0  0  0
  2  3  1  0  0  0  0
  9 28  1  0  0  0  0
 23 32  1  0  0  0  0
  8  9  1  0  0  0  0
  9 10  1  0  0  0  0
  1 35  1  0  0  0  0
  8 27  1  0  0  0  0
  2 27  1  0  0  0  0
  8 34  2  0  0  0  0
 10 11  1  0  0  0  0
 11 12  1  0  0  0  0
  1  2  1  0  0  0  0
  1 29  1  0  0  0  0
  1 36  1  0  0  0  0
  2 37  1  0  0  0  0
  3 38  1  0  0  0  0
  3 39  1  0  0  0  0
  4 40  1  0  0  0  0
  6 41  1  0  0  0  0
  6 42  1  0  0  0  0
  7 43  1  0  0  0  0
  7 44  1  0  0  0  0
  9 45  1  0  0  0  0
 10 46  1  0  0  0  0
 10 47  1  0  0  0  0
 11 48  1  0  0  0  0
 12 49  1  0  0  0  0
 12 50  1  0  0  0  0
 12 51  1  0  0  0  0
 13 52  1  0  0  0  0
 13 53  1  0  0  0  0
 13 54  1  0  0  0  0
 15 55  1  0  0  0  0
 15 56  1  0  0  0  0
 16 57  1  0  0  0  0
 17 58  1  0  0  0  0
 18 59  1  0  0  0  0
 18 60  1  0  0  0  0
 20 61  1  0  0  0  0
 21 62  1  0  0  0  0
 23 63  1  0  0  0  0
 23 64  1  0  0  0  0
 23 65  1  0  0  0  0
 24 66  1  0  0  0  0
 25 67  1  0  0  0  0
 26 68  1  0  0  0  0
 27 69  1  0  0  0  0
 28 70  1  0  0  0  0
 29 71  1  0  0  0  0
 35 72  1  0  0  0  0
 35 73  2  0  0  0  0
 35 74  2  0  0  0  0
 72 75  1  0  0  0  0
M  END
> <OPENEYE_ISO_SMILES>
CC(C)C[C@@H](C(=O)N[C@@H](C[C@@H]1CCNC1=O)[C@@H](O)S(=O)(=O)O)NC(=O)OC[C@@H]2C[C@H]2c3ccc(cc3)OC

> <OPENEYE_INCHI>
InChI=1S/C25H37N3O9S/c1-14(2)10-20(23(30)27-21(24(31)38(33,34)35)12-16-8-9-26-22(16)29)28-25(32)37-13-17-11-19(17)15-4-6-18(36-3)7-5-15/h4-7,14,16-17,19-21,24,31H,8-13H2,1-3H3,(H,26,29)(H,27,30)(H,28,32)(H,33,34,35)/t16-,17-,19-,20-,21-,24-/m0/s1

> <OPENEYE_INCHIKEY>
GJLMLKMKSRQJFM-LPKXYDHTSA-N

> <FORMULA>
C25H37N3O9S

$$$$
