ITX
  -OEChem-02242320023D

 75 77  0     1  0  0  0  0  0999 V2000
   -4.6390   -2.9140   -0.6010 S   0  0  0  0  0  0  0  0  0  0  0  0
   -4.5950   -1.3400   -1.5010 C   0  0  2  0  0  0  0  0  0  0  0  0
   -4.7820   -0.1840   -0.5160 C   0  0  2  0  0  0  0  0  0  0  0  0
   -4.8010    1.1410   -1.2830 C   0  0  0  0  0  0  0  0  0  0  0  0
   -5.0520    2.2910   -0.3060 C   0  0  1  0  0  0  0  0  0  0  0  0
   -5.0570    3.6150   -1.0380 C   0  0  0  0  0  0  0  0  0  0  0  0
   -6.8810    3.6740    0.4000 C   0  0  0  0  0  0  0  0  0  0  0  0
   -6.4710    2.1870    0.3000 C   0  0  0  0  0  0  0  0  0  0  0  0
   -2.4030   -0.0970    0.0060 C   0  0  0  0  0  0  0  0  0  0  0  0
   -1.2620   -0.2040    0.9840 C   0  0  2  0  0  0  0  0  0  0  0  0
   -1.3680    0.9200    2.0160 C   0  0  0  0  0  0  0  0  0  0  0  0
   -0.2830    0.7390    3.0800 C   0  0  0  0  0  0  0  0  0  0  0  0
   -0.3090    1.9290    4.0420 C   0  0  0  0  0  0  0  0  0  0  0  0
   -0.5430   -0.5520    3.8590 C   0  0  0  0  0  0  0  0  0  0  0  0
    1.1280   -0.6330    0.7820 C   0  0  0  0  0  0  0  0  0  0  0  0
    3.4610   -1.1370    0.7370 C   0  0  0  0  0  0  0  0  0  0  0  0
    4.6850   -0.9150   -0.1530 C   0  0  1  0  0  0  0  0  0  0  0  0
    6.0400   -1.3850    0.3790 C   0  0  1  0  0  0  0  0  0  0  0  0
    5.3550   -2.1510   -0.7550 C   0  0  0  0  0  0  0  0  0  0  0  0
    7.2510   -0.5590    0.0290 C   0  0  0  0  0  0  0  0  0  0  0  0
    8.0130    0.0080    1.0330 C   0  0  0  0  0  0  0  0  0  0  0  0
    9.1230    0.7660    0.7140 C   0  0  0  0  0  0  0  0  0  0  0  0
    9.4720    0.9580   -0.6150 C   0  0  0  0  0  0  0  0  0  0  0  0
   10.8630    1.8590   -2.3190 C   0  0  0  0  0  0  0  0  0  0  0  0
    8.7060    0.3880   -1.6200 C   0  0  0  0  0  0  0  0  0  0  0  0
    7.6000   -0.3740   -1.2960 C   0  0  0  0  0  0  0  0  0  0  0  0
   -6.0940    4.3660   -0.6270 N   0  0  0  0  0  0  0  0  0  0  0  0
   -3.6750   -0.1760    0.4440 N   0  0  0  0  0  0  0  0  0  0  0  0
    0.0090   -0.0880    0.2640 N   0  0  0  0  0  0  0  0  0  0  0  0
   -5.6460   -1.3150   -2.4690 O   0  0  0  0  0  0  0  0  0  0  0  0
   -4.2440    3.9510   -1.8730 O   0  0  0  0  0  0  0  0  0  0  0  0
    2.2970   -0.5260    0.1210 O   0  0  0  0  0  0  0  0  0  0  0  0
   10.5640    1.7040   -0.9310 O   0  0  0  0  0  0  0  0  0  0  0  0
    1.0830   -1.2200    1.8440 O   0  0  0  0  0  0  0  0  0  0  0  0
   -2.1780    0.0610   -1.1750 O   0  0  0  0  0  0  0  0  0  0  0  0
   -3.6340   -1.2360   -2.0050 H   0  0  0  0  0  0  0  0  0  0  0  0
   -5.7250   -0.3090    0.0160 H   0  0  0  0  0  0  0  0  0  0  0  0
   -3.8410    1.2880   -1.7780 H   0  0  0  0  0  0  0  0  0  0  0  0
   -5.5950    1.1170   -2.0290 H   0  0  0  0  0  0  0  0  0  0  0  0
   -4.3000    2.2920    0.4830 H   0  0  0  0  0  0  0  0  0  0  0  0
   -7.9460    3.7860    0.1980 H   0  0  0  0  0  0  0  0  0  0  0  0
   -6.6410    4.0650    1.3880 H   0  0  0  0  0  0  0  0  0  0  0  0
   -7.1400    1.6420   -0.3660 H   0  0  0  0  0  0  0  0  0  0  0  0
   -6.4410    1.7240    1.2860 H   0  0  0  0  0  0  0  0  0  0  0  0
   -1.3060   -1.1680    1.4900 H   0  0  0  0  0  0  0  0  0  0  0  0
   -1.2340    1.8820    1.5210 H   0  0  0  0  0  0  0  0  0  0  0  0
   -2.3490    0.8880    2.4890 H   0  0  0  0  0  0  0  0  0  0  0  0
    0.6930    0.6830    2.5980 H   0  0  0  0  0  0  0  0  0  0  0  0
   -1.2850    1.9850    4.5240 H   0  0  0  0  0  0  0  0  0  0  0  0
    0.4640    1.8000    4.8000 H   0  0  0  0  0  0  0  0  0  0  0  0
   -0.1240    2.8490    3.4870 H   0  0  0  0  0  0  0  0  0  0  0  0
   -0.5250   -1.4000    3.1740 H   0  0  0  0  0  0  0  0  0  0  0  0
    0.2300   -0.6810    4.6170 H   0  0  0  0  0  0  0  0  0  0  0  0
   -1.5190   -0.4960    4.3410 H   0  0  0  0  0  0  0  0  0  0  0  0
    3.2890   -2.2070    0.8580 H   0  0  0  0  0  0  0  0  0  0  0  0
    3.6340   -0.6850    1.7140 H   0  0  0  0  0  0  0  0  0  0  0  0
    4.6690   -0.0070   -0.7560 H   0  0  0  0  0  0  0  0  0  0  0  0
    6.0590   -1.8540    1.3630 H   0  0  0  0  0  0  0  0  0  0  0  0
    4.9230   -3.1240   -0.5180 H   0  0  0  0  0  0  0  0  0  0  0  0
    5.7800   -2.0570   -1.7550 H   0  0  0  0  0  0  0  0  0  0  0  0
    7.7410   -0.1410    2.0670 H   0  0  0  0  0  0  0  0  0  0  0  0
    9.7190    1.2090    1.4990 H   0  0  0  0  0  0  0  0  0  0  0  0
   11.0390    0.8800   -2.7650 H   0  0  0  0  0  0  0  0  0  0  0  0
   10.0240    2.3420   -2.8200 H   0  0  0  0  0  0  0  0  0  0  0  0
   11.7560    2.4750   -2.4320 H   0  0  0  0  0  0  0  0  0  0  0  0
    8.9750    0.5360   -2.6560 H   0  0  0  0  0  0  0  0  0  0  0  0
    7.0050   -0.8220   -2.0790 H   0  0  0  0  0  0  0  0  0  0  0  0
   -6.2960    5.2530   -0.9660 H   0  0  0  0  0  0  0  0  0  0  0  0
   -3.8590   -0.2280    1.3950 H   0  0  0  0  0  0  0  0  0  0  0  0
    0.0460    0.3810   -0.5840 H   0  0  0  0  0  0  0  0  0  0  0  0
   -5.6820   -0.5010   -2.9890 H   0  0  0  0  0  0  0  0  0  0  0  0
   -3.4850   -2.8190    0.3870 O   0  0  0  0  0  0  0  0  0  0  0  0
   -5.7970   -2.9870    0.2200 O   0  0  0  0  0  0  0  0  0  0  0  0
   -4.2800   -3.9890   -1.4580 O   0  0  0  0  0  0  0  0  0  0  0  0
   -3.3820   -3.6000    0.9470 H   0  0  0  0  0  0  0  0  0  0  0  0
 18 19  1  0  0  0  0
 17 19  1  0  0  0  0
  6 31  2  0  0  0  0
 17 18  1  0  0  0  0
 18 20  1  0  0  0  0
  6 27  1  0  0  0  0
  5  6  1  0  0  0  0
 16 17  1  0  0  0  0
 20 26  2  0  0  0  0
 25 26  1  0  0  0  0
  7 27  1  0  0  0  0
 16 32  1  0  0  0  0
 20 21  1  0  0  0  0
 15 34  2  0  0  0  0
 23 25  2  0  0  0  0
  4  5  1  0  0  0  0
  5  8  1  0  0  0  0
 21 22  2  0  0  0  0
 15 32  1  0  0  0  0
 15 29  1  0  0  0  0
  7  8  1  0  0  0  0
 22 23  1  0  0  0  0
 23 33  1  0  0  0  0
 12 14  1  0  0  0  0
  3  4  1  0  0  0  0
 24 33  1  0  0  0  0
 10 29  1  0  0  0  0
  1  2  1  0  0  0  0
  9 10  1  0  0  0  0
 10 11  1  0  0  0  0
  3 28  1  0  0  0  0
  9 28  1  0  0  0  0
 11 12  1  0  0  0  0
 12 13  1  0  0  0  0
  2  3  1  0  0  0  0
  9 35  2  0  0  0  0
  2 30  1  0  0  0  0
  2 36  1  0  0  0  0
  3 37  1  0  0  0  0
  4 38  1  0  0  0  0
  4 39  1  0  0  0  0
  5 40  1  0  0  0  0
  7 41  1  0  0  0  0
  7 42  1  0  0  0  0
  8 43  1  0  0  0  0
  8 44  1  0  0  0  0
 10 45  1  0  0  0  0
 11 46  1  0  0  0  0
 11 47  1  0  0  0  0
 12 48  1  0  0  0  0
 13 49  1  0  0  0  0
 13 50  1  0  0  0  0
 13 51  1  0  0  0  0
 14 52  1  0  0  0  0
 14 53  1  0  0  0  0
 14 54  1  0  0  0  0
 16 55  1  0  0  0  0
 16 56  1  0  0  0  0
 17 57  1  0  0  0  0
 18 58  1  0  0  0  0
 19 59  1  0  0  0  0
 19 60  1  0  0  0  0
 21 61  1  0  0  0  0
 22 62  1  0  0  0  0
 24 63  1  0  0  0  0
 24 64  1  0  0  0  0
 24 65  1  0  0  0  0
 25 66  1  0  0  0  0
 26 67  1  0  0  0  0
 27 68  1  0  0  0  0
 28 69  1  0  0  0  0
 29 70  1  0  0  0  0
 30 71  1  0  0  0  0
  1 72  1  0  0  0  0
  1 73  2  0  0  0  0
  1 74  2  0  0  0  0
 72 75  1  0  0  0  0
M  END
> <OPENEYE_ISO_SMILES>
CC(C)C[C@@H](C(=O)N[C@@H](C[C@@H]1CCNC1=O)[C@H](O)S(=O)(=O)O)NC(=O)OC[C@@H]2C[C@H]2c3ccc(cc3)OC

> <OPENEYE_INCHI>
InChI=1S/C25H37N3O9S/c1-14(2)10-20(23(30)27-21(24(31)38(33,34)35)12-16-8-9-26-22(16)29)28-25(32)37-13-17-11-19(17)15-4-6-18(36-3)7-5-15/h4-7,14,16-17,19-21,24,31H,8-13H2,1-3H3,(H,26,29)(H,27,30)(H,28,32)(H,33,34,35)/t16-,17-,19-,20-,21-,24+/m0/s1

> <OPENEYE_INCHIKEY>
GJLMLKMKSRQJFM-HDBZVZNMSA-N

> <FORMULA>
C25H37N3O9S

$$$$
