800
  -OEChem-02242320013D

 76 78  0     1  0  0  0  0  0999 V2000
   -5.5960   -0.2750    0.2740 C   0  0  0  0  0  0  0  0  0  0  0  0
   -2.8850   -3.0870    1.7010 C   0  0  0  0  0  0  0  0  0  0  0  0
   -1.9360   -0.8600    1.0820 C   0  0  2  0  0  0  0  0  0  0  0  0
   -0.7730   -0.1560    0.4310 C   0  0  0  0  0  0  0  0  0  0  0  0
   -9.0020    0.8630   -2.5590 C   0  0  0  0  0  0  0  0  0  0  0  0
    1.4940    0.7350    0.5010 C   0  0  2  0  0  0  0  0  0  0  0  0
    2.8020    0.2950    1.1050 C   0  0  0  0  0  0  0  0  0  0  0  0
   -7.6330    0.7210   -2.5440 C   0  0  0  0  0  0  0  0  0  0  0  0
    5.2280    0.0840    1.0210 C   0  0  1  0  0  0  0  0  0  0  0  0
    6.2860    0.0980   -0.0850 C   0  0  0  0  0  0  0  0  0  0  0  0
    5.8620   -0.8500   -1.2080 C   0  0  2  0  0  0  0  0  0  0  0  0
    5.8380   -2.3120   -0.7030 C   0  0  0  0  0  0  0  0  0  0  0  0
    6.3420   -3.0820   -1.9440 C   0  0  0  0  0  0  0  0  0  0  0  0
    6.8940   -0.8570   -2.3140 C   0  0  0  0  0  0  0  0  0  0  0  0
   -6.9910    0.3240   -1.3740 C   0  0  0  0  0  0  0  0  0  0  0  0
   -1.7050   -2.3720    1.0400 C   0  0  0  0  0  0  0  0  0  0  0  0
   -0.4170   -2.7130    1.7910 C   0  0  0  0  0  0  0  0  0  0  0  0
    1.2730    2.2210    0.7900 C   0  0  0  0  0  0  0  0  0  0  0  0
    2.3600    3.0430    0.0950 C   0  0  0  0  0  0  0  0  0  0  0  0
    2.1960    2.9270   -1.4210 C   0  0  0  0  0  0  0  0  0  0  0  0
    2.2350    4.5100    0.5110 C   0  0  0  0  0  0  0  0  0  0  0  0
   -7.7540    0.0730   -0.2170 C   0  0  0  0  0  0  0  0  0  0  0  0
   -6.8470   -0.3080    0.8010 C   0  0  0  0  0  0  0  0  0  0  0  0
   -9.1460    0.2260   -0.2570 C   0  0  0  0  0  0  0  0  0  0  0  0
   -9.7530    0.6160   -1.4160 C   0  0  0  0  0  0  0  0  0  0  0  0
    5.6940    0.9630    2.1830 C   0  0  0  0  0  0  0  0  0  0  0  0
   -4.3570   -0.6030    0.9960 C   0  0  0  0  0  0  0  0  0  0  0  0
   -3.1690   -0.5340    0.3630 N   0  0  0  0  0  0  0  0  0  0  0  0
    0.4000   -0.0440    1.0860 N   0  0  0  0  0  0  0  0  0  0  0  0
    3.9640    0.6020    0.4930 N   0  0  0  0  0  0  0  0  0  0  0  0
   -5.6720    0.1080   -1.0510 N   0  0  0  0  0  0  0  0  0  0  0  0
    7.1480   -2.1180   -2.7030 N   0  0  0  0  0  0  0  0  0  0  0  0
    5.9950    2.2730    1.6990 O   0  0  0  0  0  0  0  0  0  0  0  0
    7.4170    0.1330   -2.7820 O   0  0  0  0  0  0  0  0  0  0  0  0
   -4.4050   -0.9360    2.1650 O   0  0  0  0  0  0  0  0  0  0  0  0
   -0.8930    0.3100   -0.6820 O   0  0  0  0  0  0  0  0  0  0  0  0
    2.8110   -0.3360    2.1410 O   0  0  0  0  0  0  0  0  0  0  0  0
   -3.8030   -2.8440    1.1650 H   0  0  0  0  0  0  0  0  0  0  0  0
   -2.7210   -4.1640    1.6710 H   0  0  0  0  0  0  0  0  0  0  0  0
   -2.9730   -2.7610    2.7380 H   0  0  0  0  0  0  0  0  0  0  0  0
   -2.0230   -0.5350    2.1190 H   0  0  0  0  0  0  0  0  0  0  0  0
   -9.4980    1.1720   -3.4670 H   0  0  0  0  0  0  0  0  0  0  0  0
    1.5180    0.5740   -0.5770 H   0  0  0  0  0  0  0  0  0  0  0  0
   -7.0580    0.9160   -3.4370 H   0  0  0  0  0  0  0  0  0  0  0  0
    5.0840   -0.9380    1.3730 H   0  0  0  0  0  0  0  0  0  0  0  0
    6.3850    1.1090   -0.4810 H   0  0  0  0  0  0  0  0  0  0  0  0
    7.2430   -0.2280    0.3230 H   0  0  0  0  0  0  0  0  0  0  0  0
    4.8840   -0.5660   -1.5980 H   0  0  0  0  0  0  0  0  0  0  0  0
    6.5160   -2.4440    0.1400 H   0  0  0  0  0  0  0  0  0  0  0  0
    4.8260   -2.6170   -0.4390 H   0  0  0  0  0  0  0  0  0  0  0  0
    6.9560   -3.9290   -1.6380 H   0  0  0  0  0  0  0  0  0  0  0  0
    5.4980   -3.4250   -2.5430 H   0  0  0  0  0  0  0  0  0  0  0  0
   -1.6180   -2.6970    0.0030 H   0  0  0  0  0  0  0  0  0  0  0  0
   -0.4800   -2.3340    2.8120 H   0  0  0  0  0  0  0  0  0  0  0  0
   -0.2840   -3.7940    1.8130 H   0  0  0  0  0  0  0  0  0  0  0  0
    0.4320   -2.2530    1.2850 H   0  0  0  0  0  0  0  0  0  0  0  0
    0.2940    2.5230    0.4160 H   0  0  0  0  0  0  0  0  0  0  0  0
    1.3190    2.3930    1.8660 H   0  0  0  0  0  0  0  0  0  0  0  0
    3.3410    2.6660    0.3850 H   0  0  0  0  0  0  0  0  0  0  0  0
    1.2400    3.3570   -1.7170 H   0  0  0  0  0  0  0  0  0  0  0  0
    3.0050    3.4640   -1.9160 H   0  0  0  0  0  0  0  0  0  0  0  0
    2.2270    1.8760   -1.7110 H   0  0  0  0  0  0  0  0  0  0  0  0
    1.2540    4.8870    0.2220 H   0  0  0  0  0  0  0  0  0  0  0  0
    2.3520    4.5930    1.5920 H   0  0  0  0  0  0  0  0  0  0  0  0
    3.0090    5.0950    0.0160 H   0  0  0  0  0  0  0  0  0  0  0  0
   -7.1040   -0.5760    1.8160 H   0  0  0  0  0  0  0  0  0  0  0  0
   -9.7380    0.0360    0.6260 H   0  0  0  0  0  0  0  0  0  0  0  0
  -10.8260    0.7330   -1.4450 H   0  0  0  0  0  0  0  0  0  0  0  0
    4.9040    1.0250    2.9310 H   0  0  0  0  0  0  0  0  0  0  0  0
    6.5870    0.5280    2.6320 H   0  0  0  0  0  0  0  0  0  0  0  0
   -3.1320   -0.2690   -0.5700 H   0  0  0  0  0  0  0  0  0  0  0  0
    0.5190   -0.4800    1.9440 H   0  0  0  0  0  0  0  0  0  0  0  0
    3.9620    1.1650   -0.2960 H   0  0  0  0  0  0  0  0  0  0  0  0
   -4.9200    0.2060   -1.6560 H   0  0  0  0  0  0  0  0  0  0  0  0
    7.7820   -2.3600   -3.3960 H   0  0  0  0  0  0  0  0  0  0  0  0
    6.2970    2.8860    2.3830 H   0  0  0  0  0  0  0  0  0  0  0  0
 26 33  1  0  0  0  0
  9 26  1  0  0  0  0
  9 10  1  0  0  0  0
  9 30  1  0  0  0  0
 10 11  1  0  0  0  0
  7 30  1  0  0  0  0
 14 34  2  0  0  0  0
 19 20  1  0  0  0  0
 19 21  1  0  0  0  0
 18 19  1  0  0  0  0
 11 14  1  0  0  0  0
 14 32  1  0  0  0  0
 11 12  1  0  0  0  0
  6  7  1  0  0  0  0
  7 37  2  0  0  0  0
  6 18  1  0  0  0  0
  6 29  1  0  0  0  0
 13 32  1  0  0  0  0
 12 13  1  0  0  0  0
  4 36  2  0  0  0  0
  4 29  1  0  0  0  0
  3  4  1  0  0  0  0
  3 16  1  0  0  0  0
  3 28  1  0  0  0  0
  8 15  2  0  0  0  0
  5  8  1  0  0  0  0
 15 31  1  0  0  0  0
  1 31  1  0  0  0  0
 16 17  1  0  0  0  0
  2 16  1  0  0  0  0
 15 22  1  0  0  0  0
 27 28  1  0  0  0  0
  5 25  2  0  0  0  0
 27 35  2  0  0  0  0
  1 27  1  0  0  0  0
  1 23  2  0  0  0  0
 22 23  1  0  0  0  0
 22 24  2  0  0  0  0
 24 25  1  0  0  0  0
  2 38  1  0  0  0  0
  2 39  1  0  0  0  0
  2 40  1  0  0  0  0
  3 41  1  0  0  0  0
  5 42  1  0  0  0  0
  6 43  1  0  0  0  0
  8 44  1  0  0  0  0
  9 45  1  0  0  0  0
 10 46  1  0  0  0  0
 10 47  1  0  0  0  0
 11 48  1  0  0  0  0
 12 49  1  0  0  0  0
 12 50  1  0  0  0  0
 13 51  1  0  0  0  0
 13 52  1  0  0  0  0
 16 53  1  0  0  0  0
 17 54  1  0  0  0  0
 17 55  1  0  0  0  0
 17 56  1  0  0  0  0
 18 57  1  0  0  0  0
 18 58  1  0  0  0  0
 19 59  1  0  0  0  0
 20 60  1  0  0  0  0
 20 61  1  0  0  0  0
 20 62  1  0  0  0  0
 21 63  1  0  0  0  0
 21 64  1  0  0  0  0
 21 65  1  0  0  0  0
 23 66  1  0  0  0  0
 24 67  1  0  0  0  0
 25 68  1  0  0  0  0
 26 69  1  0  0  0  0
 26 70  1  0  0  0  0
 28 71  1  0  0  0  0
 29 72  1  0  0  0  0
 30 73  1  0  0  0  0
 31 74  1  0  0  0  0
 32 75  1  0  0  0  0
 33 76  1  0  0  0  0
M  END
> <OPENEYE_ISO_SMILES>
CC(C)C[C@@H](C(=O)N[C@@H](C[C@@H]1CCNC1=O)CO)NC(=O)[C@H](C(C)C)NC(=O)c2cc3ccccc3[nH]2

> <OPENEYE_INCHI>
InChI=1S/C27H39N5O5/c1-15(2)11-21(25(35)29-19(14-33)12-18-9-10-28-24(18)34)31-27(37)23(16(3)4)32-26(36)22-13-17-7-5-6-8-20(17)30-22/h5-8,13,15-16,18-19,21,23,30,33H,9-12,14H2,1-4H3,(H,28,34)(H,29,35)(H,31,37)(H,32,36)/t18-,19-,21-,23-/m0/s1

> <OPENEYE_INCHIKEY>
XLMZOOXPIUOPPM-YDWJEQILSA-N

> <FORMULA>
C27H39N5O5

$$$$
