W0P
  -OEChem-02242320043D

 22 22  0     1  0  0  0  0  0999 V2000
    2.3760    1.7890   -0.3700 C   0  0  0  0  0  0  0  0  0  0  0  0
    3.4250    0.8900   -0.3440 C   0  0  0  0  0  0  0  0  0  0  0  0
    3.1820   -0.4540   -0.1250 C   0  0  0  0  0  0  0  0  0  0  0  0
    1.8880   -0.9010    0.0680 C   0  0  0  0  0  0  0  0  0  0  0  0
   -2.7680   -0.1770   -0.2890 C   0  0  0  0  0  0  0  0  0  0  0  0
   -3.8660    0.5360   -0.5860 O   0  0  0  0  0  0  0  0  0  0  0  0
   -2.8070   -1.3850   -0.3120 O   0  0  0  0  0  0  0  0  0  0  0  0
   -1.4870    0.5280    0.0730 C   0  0  1  0  0  0  0  0  0  0  0  0
   -1.6790    1.2930    1.3840 C   0  0  0  0  0  0  0  0  0  0  0  0
   -0.4420   -0.4340    0.2310 O   0  0  0  0  0  0  0  0  0  0  0  0
    0.8320    0.0020    0.0410 C   0  0  0  0  0  0  0  0  0  0  0  0
    1.6500   -2.2140    0.2810 F   0  0  0  0  0  0  0  0  0  0  0  0
    1.0800    1.3480   -0.1780 C   0  0  0  0  0  0  0  0  0  0  0  0
    2.5690    2.8380   -0.5370 H   0  0  0  0  0  0  0  0  0  0  0  0
    4.4370    1.2370   -0.4940 H   0  0  0  0  0  0  0  0  0  0  0  0
    4.0040   -1.1550   -0.1050 H   0  0  0  0  0  0  0  0  0  0  0  0
   -4.6640    0.0390   -0.8130 H   0  0  0  0  0  0  0  0  0  0  0  0
   -1.2200    1.2270   -0.7200 H   0  0  0  0  0  0  0  0  0  0  0  0
   -1.9450    0.5940    2.1770 H   0  0  0  0  0  0  0  0  0  0  0  0
   -0.7520    1.8030    1.6460 H   0  0  0  0  0  0  0  0  0  0  0  0
   -2.4760    2.0260    1.2640 H   0  0  0  0  0  0  0  0  0  0  0  0
    0.2620    2.0520   -0.1950 H   0  0  0  0  0  0  0  0  0  0  0  0
  4 12  1  0  0  0  0
  3  4  2  0  0  0  0
  2  3  1  0  0  0  0
  4 11  1  0  0  0  0
  1  2  2  0  0  0  0
 10 11  1  0  0  0  0
 11 13  2  0  0  0  0
  8 10  1  0  0  0  0
  1 13  1  0  0  0  0
  8  9  1  0  0  0  0
  5  8  1  0  0  0  0
  5  7  2  0  0  0  0
  5  6  1  0  0  0  0
  1 14  1  0  0  0  0
  2 15  1  0  0  0  0
  3 16  1  0  0  0  0
  6 17  1  0  0  0  0
  8 18  1  0  0  0  0
  9 19  1  0  0  0  0
  9 20  1  0  0  0  0
  9 21  1  0  0  0  0
 13 22  1  0  0  0  0
M  END
> <OPENEYE_ISO_SMILES>
C[C@H](C(=O)O)Oc1ccccc1F

> <OPENEYE_INCHI>
InChI=1S/C9H9FO3/c1-6(9(11)12)13-8-5-3-2-4-7(8)10/h2-6H,1H3,(H,11,12)/t6-/m1/s1

> <OPENEYE_INCHIKEY>
MMWXPDDADHYFFS-ZCFIWIBFSA-N

> <FORMULA>
C9H9FO3

$$$$
