@<TRIPOS>MOLECULE
/home/pku/3cl/gett_pdb/7FR7/7FR7_mol2/ligand/7FR7_WXB.pdb
 37 39 0 0 0
SMALL
GASTEIGER

@<TRIPOS>ATOM
      1  C18      -55.7050  -32.3210    7.8760 C.ar  201  WXB201      0.2633
      2  C15      -57.7280  -31.0570    8.6160 C.ar  201  WXB201      0.3283
      3  C13      -55.7720  -29.8450    7.4810 C.ar  201  WXB201      0.1471
      4  C11      -54.0600  -28.5960    6.4580 C.ar  201  WXB201      0.0420
      5  C10      -53.2920  -29.7510    6.3060 C.ar  201  WXB201      0.0558
      6  C20      -55.0810  -31.0220    7.3570 C.ar  201  WXB201      0.0824
      7  C02      -51.9370  -29.6690    5.6010 C.2   201  WXB201      0.2481
      8  C04      -49.5500  -30.0260    5.2000 C.3   201  WXB201      0.0150
      9  C05      -48.7750  -28.7450    5.4760 C.3   201  WXB201     -0.0371
     10  C06      -48.6530  -28.5050    6.9760 C.3   201  WXB201     -0.0516
     11  C07      -48.3800  -29.7960    7.7400 C.3   201  WXB201     -0.0516
     12  C08      -49.6190  -30.4050    8.3780 C.3   201  WXB201     -0.0371
     13  C09      -50.7120  -30.8260    7.4040 C.3   201  WXB201      0.0150
     14  C21      -53.8070  -30.9880    6.7410 C.ar  201  WXB201     -0.0323
     15  N03      -50.6820  -30.1940    6.1010 N.am  201  WXB201     -0.2975
     16  N12      -55.2440  -28.6800    7.0300 N.ar  201  WXB201     -0.2364
     17  N14      -57.1310  -29.8380    8.1210 N.ar  201  WXB201     -0.2919
     18  N17      -57.0030  -32.2810    8.4820 N.ar  201  WXB201     -0.2745
     19  O01      -51.9400  -29.1650    4.5280 O.2   201  WXB201     -0.2699
     20  O16      -58.8000  -31.0370    9.1190 O.2   201  WXB201     -0.2466
     21  O19      -55.1220  -33.3470    7.7770 O.2   201  WXB201     -0.2670
     22 H111      -53.6830  -27.6340    6.1230 H     201  WXB201      0.0838
     23 H041      -48.8910  -30.8850    5.3110 H     201  WXB201      0.0464
     24 H042      -49.8930  -30.0090    4.1720 H     201  WXB201      0.0464
     25 H051      -49.2950  -27.9130    5.0160 H     201  WXB201      0.0280
     26 H052      -47.7800  -28.8330    5.0460 H     201  WXB201      0.0280
     27 H062      -49.5800  -28.0680    7.3430 H     201  WXB201      0.0266
     28 H061      -47.8380  -27.8120    7.1620 H     201  WXB201      0.0266
     29 H071      -47.7000  -29.5620    8.5360 H     201  WXB201      0.0266
     30 H072      -47.9100  -30.5250    7.0930 H     201  WXB201      0.0266
     31 H081      -49.3210  -31.2700    8.9530 H     201  WXB201      0.0280
     32 H082      -50.0540  -29.6700    9.0510 H     201  WXB201      0.0280
     33 H092      -50.7330  -31.8920    7.2530 H     201  WXB201      0.0464
     34 H091      -51.6100  -30.5640    7.9140 H     201  WXB201      0.0464
     35 H211      -53.2260  -31.8970    6.6530 H     201  WXB201      0.0634
     36 H141      -57.6600  -28.9940    8.2270 H     201  WXB201      0.1718
     37 H171      -57.4350  -33.0940    8.8210 H     201  WXB201      0.1734
@<TRIPOS>BOND
     1    24     8    1
     2    19     7    2
     3    25     9    1
     4    26     9    1
     5     8    23    1
     6     8     9    1
     7     8    15    1
     8     9    10    1
     9     7    15   am
    10     7     5    1
    11    15    13    1
    12    22     4    1
    13     5     4   ar
    14     5    14   ar
    15     4    16   ar
    16    35    14    1
    17    14     6   ar
    18    10    28    1
    19    10    27    1
    20    10    11    1
    21    16     3   ar
    22    30    11    1
    23    33    13    1
    24     6     3   ar
    25     6     1   ar
    26    13    34    1
    27    13    12    1
    28     3    17   ar
    29    11    12    1
    30    11    29    1
    31    21     1    2
    32     1    18   ar
    33    17    36    1
    34    17     2   ar
    35    12    31    1
    36    12    32    1
    37    18     2   ar
    38    18    37    1
    39     2    20    2
