HRZ
  -OEChem-02242320023D

 12 12  0     0  0  0  0  0  0999 V2000
   -0.9440   -0.0280   -0.0020 C   0  0  0  0  0  0  0  0  0  0  0  0
   -0.2300   -1.2380   -0.0010 C   0  0  0  0  0  0  0  0  0  0  0  0
    1.7920    0.0290    0.0010 C   0  0  0  0  0  0  0  0  0  0  0  0
    1.0740    1.1760    0.0000 C   0  0  0  0  0  0  0  0  0  0  0  0
   -2.1650   -0.0410    0.0020 O   0  0  0  0  0  0  0  0  0  0  0  0
    1.1340   -1.2090    0.0000 C   0  0  0  0  0  0  0  0  0  0  0  0
   -0.2830    1.1450   -0.0010 N   0  0  0  0  0  0  0  0  0  0  0  0
   -0.7550   -2.1820   -0.0020 H   0  0  0  0  0  0  0  0  0  0  0  0
    2.8720    0.0670    0.0020 H   0  0  0  0  0  0  0  0  0  0  0  0
    1.5870    2.1270    0.0000 H   0  0  0  0  0  0  0  0  0  0  0  0
    1.7000   -2.1280    0.0010 H   0  0  0  0  0  0  0  0  0  0  0  0
   -0.7820    1.9770   -0.0010 H   0  0  0  0  0  0  0  0  0  0  0  0
  1  5  2  0  0  0  0
  1  2  1  0  0  0  0
  1  7  1  0  0  0  0
  2  6  2  0  0  0  0
  4  7  1  0  0  0  0
  3  6  1  0  0  0  0
  3  4  2  0  0  0  0
  2  8  1  0  0  0  0
  3  9  1  0  0  0  0
  4 10  1  0  0  0  0
  6 11  1  0  0  0  0
  7 12  1  0  0  0  0
M  END
> <OPENEYE_ISO_SMILES>
c1cc[nH]c(=O)c1

> <OPENEYE_INCHI>
InChI=1S/C5H5NO/c7-5-3-1-2-4-6-5/h1-4H,(H,6,7)

> <OPENEYE_INCHIKEY>
UBQKCCHYAOITMY-UHFFFAOYSA-N

> <FORMULA>
C5H5NO

$$$$
