WNV
  -OEChem-02242320043D

 28 28  0     0  0  0  0  0  0999 V2000
    2.3510    0.1300    0.1480 C   0  0  0  0  0  0  0  0  0  0  0  0
    0.8530    2.1240    0.3380 C   0  0  0  0  0  0  0  0  0  0  0  0
   -3.7140    0.3990    0.2540 C   0  0  0  0  0  0  0  0  0  0  0  0
   -2.1600   -1.4750    0.9680 C   0  0  0  0  0  0  0  0  0  0  0  0
   -1.3590    0.3980   -0.3690 C   0  0  0  0  0  0  0  0  0  0  0  0
    0.0060   -0.1630   -0.2760 C   0  0  0  0  0  0  0  0  0  0  0  0
    0.2250   -1.5180   -0.5290 C   0  0  0  0  0  0  0  0  0  0  0  0
    1.5000   -2.0360   -0.4360 C   0  0  0  0  0  0  0  0  0  0  0  0
    2.5620   -1.2140   -0.1040 C   0  0  0  0  0  0  0  0  0  0  0  0
    3.5140    1.0180    0.5100 C   0  0  0  0  0  0  0  0  0  0  0  0
    1.0810    0.6600    0.0640 C   0  0  0  0  0  0  0  0  0  0  0  0
   -2.3820   -0.2080    0.2660 N   0  0  0  0  0  0  0  0  0  0  0  0
   -1.5590    1.4060   -1.0180 O   0  0  0  0  0  0  0  0  0  0  0  0
    1.0570    2.6990   -0.5650 H   0  0  0  0  0  0  0  0  0  0  0  0
   -0.1820    2.2800    0.6420 H   0  0  0  0  0  0  0  0  0  0  0  0
    1.5200    2.4520    1.1360 H   0  0  0  0  0  0  0  0  0  0  0  0
   -3.8180    1.0660    1.1100 H   0  0  0  0  0  0  0  0  0  0  0  0
   -3.8470    0.9670   -0.6670 H   0  0  0  0  0  0  0  0  0  0  0  0
   -4.4710   -0.3830    0.3100 H   0  0  0  0  0  0  0  0  0  0  0  0
   -2.2470   -2.3010    0.2630 H   0  0  0  0  0  0  0  0  0  0  0  0
   -1.1630   -1.4760    1.4090 H   0  0  0  0  0  0  0  0  0  0  0  0
   -2.9050   -1.5890    1.7550 H   0  0  0  0  0  0  0  0  0  0  0  0
   -0.6020   -2.1600   -0.7930 H   0  0  0  0  0  0  0  0  0  0  0  0
    1.6710   -3.0850   -0.6320 H   0  0  0  0  0  0  0  0  0  0  0  0
    3.5590   -1.6230   -0.0400 H   0  0  0  0  0  0  0  0  0  0  0  0
    3.9430    1.4420   -0.3980 H   0  0  0  0  0  0  0  0  0  0  0  0
    3.1680    1.8230    1.1580 H   0  0  0  0  0  0  0  0  0  0  0  0
    4.2710    0.4320    1.0300 H   0  0  0  0  0  0  0  0  0  0  0  0
  2 11  1  0  0  0  0
  1 10  1  0  0  0  0
  3 12  1  0  0  0  0
  4 12  1  0  0  0  0
  5 12  1  0  0  0  0
  1 11  2  0  0  0  0
  6 11  1  0  0  0  0
  1  9  1  0  0  0  0
  5  6  1  0  0  0  0
  5 13  2  0  0  0  0
  6  7  2  0  0  0  0
  8  9  2  0  0  0  0
  7  8  1  0  0  0  0
  2 14  1  0  0  0  0
  2 15  1  0  0  0  0
  2 16  1  0  0  0  0
  3 17  1  0  0  0  0
  3 18  1  0  0  0  0
  3 19  1  0  0  0  0
  4 20  1  0  0  0  0
  4 21  1  0  0  0  0
  4 22  1  0  0  0  0
  7 23  1  0  0  0  0
  8 24  1  0  0  0  0
  9 25  1  0  0  0  0
 10 26  1  0  0  0  0
 10 27  1  0  0  0  0
 10 28  1  0  0  0  0
M  END
> <OPENEYE_ISO_SMILES>
Cc1cccc(c1C)C(=O)N(C)C

> <OPENEYE_INCHI>
InChI=1S/C11H15NO/c1-8-6-5-7-10(9(8)2)11(13)12(3)4/h5-7H,1-4H3

> <OPENEYE_INCHIKEY>
KJFNIMLMIUNQSJ-UHFFFAOYSA-N

> <FORMULA>
C11H15NO

$$$$
