SDJ
  -OEChem-02242320043D

 67 70  0     1  0  0  0  0  0999 V2000
   -0.8330   -0.2320    2.1160 O   0  0  0  0  0  0  0  0  0  0  0  0
   -0.5120   -0.6150    1.0110 C   0  0  0  0  0  0  0  0  0  0  0  0
    0.7870   -0.8330    0.7240 N   0  0  0  0  0  0  0  0  0  0  0  0
   -1.5660   -0.8520   -0.0400 C   0  0  0  0  0  0  0  0  0  0  0  0
   -3.9700   -0.7700   -0.4800 N   0  0  0  0  0  0  0  0  0  0  0  0
    2.9590    3.1870    2.9650 O   0  0  0  0  0  0  0  0  0  0  0  0
    3.2460    3.5890    1.8630 C   0  0  0  0  0  0  0  0  0  0  0  0
    2.7230    2.8790    0.6410 C   0  0  2  0  0  0  0  0  0  0  0  0
    1.8780    3.8480   -0.1890 C   0  0  0  0  0  0  0  0  0  0  0  0
    1.4560    3.1760   -1.4700 C   0  0  0  0  0  0  0  0  0  0  0  0
    0.2750    2.5240   -1.6980 N   0  0  0  0  0  0  0  0  0  0  0  0
    0.3070    2.0740   -2.9710 C   0  0  0  0  0  0  0  0  0  0  0  0
    1.4420    2.4240   -3.5100 N   0  0  0  0  0  0  0  0  0  0  0  0
    2.1670    3.1080   -2.6120 C   0  0  0  0  0  0  0  0  0  0  0  0
    1.8940    1.7390    1.0550 N   0  0  0  0  0  0  0  0  0  0  0  0
    2.7220    0.5530    1.3120 C   0  0  0  0  0  0  0  0  0  0  0  0
    1.8260   -0.6110    1.7400 C   0  0  2  0  0  0  0  0  0  0  0  0
    2.6660   -1.8860    1.8690 C   0  0  0  0  0  0  0  0  0  0  0  0
    3.2090   -2.2780    0.4920 C   0  0  1  0  0  0  0  0  0  0  0  0
    4.0730   -3.5330    0.6310 C   0  0  0  0  0  0  0  0  0  0  0  0
    4.6150   -3.9360   -0.7410 C   0  0  0  0  0  0  0  0  0  0  0  0
    3.4470   -4.2260   -1.6850 C   0  0  0  0  0  0  0  0  0  0  0  0
    2.5860   -2.9690   -1.8280 C   0  0  0  0  0  0  0  0  0  0  0  0
    2.0420   -2.5590   -0.4570 C   0  0  2  0  0  0  0  0  0  0  0  0
    1.1920   -1.3020   -0.6070 C   0  0  0  0  0  0  0  0  0  0  0  0
   -2.9460   -0.5390    0.5420 C   0  0  0  0  0  0  0  0  0  0  0  0
   -5.3160   -0.5490   -0.1810 C   0  0  0  0  0  0  0  0  0  0  0  0
   -6.2890   -0.7680   -1.1490 C   0  0  0  0  0  0  0  0  0  0  0  0
   -7.6190   -0.5490   -0.8500 C   0  0  0  0  0  0  0  0  0  0  0  0
   -7.9840   -0.1140    0.4110 C   0  0  0  0  0  0  0  0  0  0  0  0
   -7.0180    0.1050    1.3760 C   0  0  0  0  0  0  0  0  0  0  0  0
   -5.6870   -0.1170    1.0860 C   0  0  0  0  0  0  0  0  0  0  0  0
   -1.3770   -0.2050   -0.8970 H   0  0  0  0  0  0  0  0  0  0  0  0
   -1.5330   -1.8940   -0.3570 H   0  0  0  0  0  0  0  0  0  0  0  0
   -3.7130   -1.0760   -1.3640 H   0  0  0  0  0  0  0  0  0  0  0  0
    3.8790    4.4580    1.7530 H   0  0  0  0  0  0  0  0  0  0  0  0
    3.5600    2.5220    0.0420 H   0  0  0  0  0  0  0  0  0  0  0  0
    0.9930    4.1370    0.3790 H   0  0  0  0  0  0  0  0  0  0  0  0
    2.4670    4.7360   -0.4210 H   0  0  0  0  0  0  0  0  0  0  0  0
   -0.4490    2.4060   -1.0640 H   0  0  0  0  0  0  0  0  0  0  0  0
   -0.4770    1.5160   -3.4610 H   0  0  0  0  0  0  0  0  0  0  0  0
    3.1500    3.5240   -2.7740 H   0  0  0  0  0  0  0  0  0  0  0  0
    1.1820    1.5410    0.3680 H   0  0  0  0  0  0  0  0  0  0  0  0
    3.2600    0.2820    0.4040 H   0  0  0  0  0  0  0  0  0  0  0  0
    3.4350    0.7730    2.1060 H   0  0  0  0  0  0  0  0  0  0  0  0
    1.3580   -0.3800    2.6970 H   0  0  0  0  0  0  0  0  0  0  0  0
    3.4970   -1.7060    2.5500 H   0  0  0  0  0  0  0  0  0  0  0  0
    2.0450   -2.6930    2.2580 H   0  0  0  0  0  0  0  0  0  0  0  0
    3.8130   -1.4630    0.0940 H   0  0  0  0  0  0  0  0  0  0  0  0
    4.9050   -3.3290    1.3050 H   0  0  0  0  0  0  0  0  0  0  0  0
    3.4690   -4.3460    1.0350 H   0  0  0  0  0  0  0  0  0  0  0  0
    5.2180   -3.1230   -1.1470 H   0  0  0  0  0  0  0  0  0  0  0  0
    5.2310   -4.8300   -0.6410 H   0  0  0  0  0  0  0  0  0  0  0  0
    3.8310   -4.5160   -2.6630 H   0  0  0  0  0  0  0  0  0  0  0  0
    2.8420   -5.0360   -1.2770 H   0  0  0  0  0  0  0  0  0  0  0  0
    3.1910   -2.1590   -2.2340 H   0  0  0  0  0  0  0  0  0  0  0  0
    1.7540   -3.1740   -2.5020 H   0  0  0  0  0  0  0  0  0  0  0  0
    1.4320   -3.3660   -0.0510 H   0  0  0  0  0  0  0  0  0  0  0  0
    0.3050   -1.5300   -1.1990 H   0  0  0  0  0  0  0  0  0  0  0  0
    1.7760   -0.5280   -1.1050 H   0  0  0  0  0  0  0  0  0  0  0  0
   -3.1350   -1.1860    1.3980 H   0  0  0  0  0  0  0  0  0  0  0  0
   -2.9780    0.5040    0.8590 H   0  0  0  0  0  0  0  0  0  0  0  0
   -6.0050   -1.1080   -2.1340 H   0  0  0  0  0  0  0  0  0  0  0  0
   -8.3760   -0.7190   -1.6020 H   0  0  0  0  0  0  0  0  0  0  0  0
   -9.0250    0.0570    0.6420 H   0  0  0  0  0  0  0  0  0  0  0  0
   -7.3060    0.4450    2.3600 H   0  0  0  0  0  0  0  0  0  0  0  0
   -4.9330    0.0500    1.8420 H   0  0  0  0  0  0  0  0  0  0  0  0
  5 26  1  0  0  0  0
  5 27  1  0  0  0  0
  4 26  1  0  0  0  0
 27 32  2  0  0  0  0
 31 32  1  0  0  0  0
  1  2  2  0  0  0  0
  2  4  1  0  0  0  0
 27 28  1  0  0  0  0
  2  3  1  0  0  0  0
 30 31  2  0  0  0  0
  3 17  1  0  0  0  0
  3 25  1  0  0  0  0
 24 25  1  0  0  0  0
 23 24  1  0  0  0  0
 19 24  1  0  0  0  0
 17 18  1  0  0  0  0
 18 19  1  0  0  0  0
 20 21  1  0  0  0  0
 19 20  1  0  0  0  0
 22 23  1  0  0  0  0
 21 22  1  0  0  0  0
 16 17  1  0  0  0  0
 28 29  2  0  0  0  0
 29 30  1  0  0  0  0
 13 14  1  0  0  0  0
 12 13  2  0  0  0  0
 10 14  2  0  0  0  0
 15 16  1  0  0  0  0
 11 12  1  0  0  0  0
  8 15  1  0  0  0  0
 10 11  1  0  0  0  0
  9 10  1  0  0  0  0
  8  9  1  0  0  0  0
  7  8  1  0  0  0  0
  6  7  2  0  0  0  0
  4 33  1  0  0  0  0
  4 34  1  0  0  0  0
  5 35  1  0  0  0  0
  7 36  1  0  0  0  0
  8 37  1  0  0  0  0
  9 38  1  0  0  0  0
  9 39  1  0  0  0  0
 11 40  1  0  0  0  0
 12 41  1  0  0  0  0
 14 42  1  0  0  0  0
 15 43  1  0  0  0  0
 16 44  1  0  0  0  0
 16 45  1  0  0  0  0
 17 46  1  0  0  0  0
 18 47  1  0  0  0  0
 18 48  1  0  0  0  0
 19 49  1  0  0  0  0
 20 50  1  0  0  0  0
 20 51  1  0  0  0  0
 21 52  1  0  0  0  0
 21 53  1  0  0  0  0
 22 54  1  0  0  0  0
 22 55  1  0  0  0  0
 23 56  1  0  0  0  0
 23 57  1  0  0  0  0
 24 58  1  0  0  0  0
 25 59  1  0  0  0  0
 25 60  1  0  0  0  0
 26 61  1  0  0  0  0
 26 62  1  0  0  0  0
 28 63  1  0  0  0  0
 29 64  1  0  0  0  0
 30 65  1  0  0  0  0
 31 66  1  0  0  0  0
 32 67  1  0  0  0  0
M  END
> <OPENEYE_ISO_SMILES>
c1ccc(cc1)NCCC(=O)N2C[C@H]3CCCC[C@@H]3C[C@H]2CN[C@@H](Cc4cnc[nH]4)C=O

> <OPENEYE_INCHI>
InChI=1S/C25H35N5O2/c31-17-23(13-22-14-26-18-29-22)28-15-24-12-19-6-4-5-7-20(19)16-30(24)25(32)10-11-27-21-8-2-1-3-9-21/h1-3,8-9,14,17-20,23-24,27-28H,4-7,10-13,15-16H2,(H,26,29)/t19-,20-,23+,24+/m1/s1

> <OPENEYE_INCHIKEY>
HCMRRQNNHUOUJM-CHOVIJNXSA-N

> <FORMULA>
C25H35N5O2

$$$$
