WSY
  -OEChem-02242320043D

 23 23  0     0  0  0  0  0  0999 V2000
    0.6870    0.0240    0.3590 N   0  0  0  0  0  0  0  0  0  0  0  0
   -0.7270    0.0080    0.7420 C   0  0  0  0  0  0  0  0  0  0  0  0
   -1.5880   -0.2640   -0.4940 C   0  0  0  0  0  0  0  0  0  0  0  0
   -3.0420   -0.2810   -0.0990 C   0  0  0  0  0  0  0  0  0  0  0  0
   -3.3580   -0.0940    1.0520 O   0  0  0  0  0  0  0  0  0  0  0  0
   -3.9860   -0.5020   -1.0270 O   0  0  0  0  0  0  0  0  0  0  0  0
    1.4010    1.0900   -0.0410 C   0  0  0  0  0  0  0  0  0  0  0  0
    0.8860    2.5000   -0.1770 C   0  0  0  0  0  0  0  0  0  0  0  0
    2.6220    0.6910   -0.2910 N   0  0  0  0  0  0  0  0  0  0  0  0
    1.5670   -1.0710    0.3410 N   0  0  0  0  0  0  0  0  0  0  0  0
    2.7240   -0.6180   -0.0630 C   0  0  0  0  0  0  0  0  0  0  0  0
    3.9750   -1.4410   -0.2360 C   0  0  0  0  0  0  0  0  0  0  0  0
   -0.8940   -0.7760    1.4810 H   0  0  0  0  0  0  0  0  0  0  0  0
   -0.9990    0.9730    1.1690 H   0  0  0  0  0  0  0  0  0  0  0  0
   -1.4200    0.5200   -1.2320 H   0  0  0  0  0  0  0  0  0  0  0  0
   -1.3160   -1.2290   -0.9210 H   0  0  0  0  0  0  0  0  0  0  0  0
   -4.9050   -0.5040   -0.7260 H   0  0  0  0  0  0  0  0  0  0  0  0
    1.0230    3.0300    0.7660 H   0  0  0  0  0  0  0  0  0  0  0  0
    1.4360    3.0130   -0.9660 H   0  0  0  0  0  0  0  0  0  0  0  0
   -0.1740    2.4770   -0.4290 H   0  0  0  0  0  0  0  0  0  0  0  0
    4.0120   -1.8360   -1.2520 H   0  0  0  0  0  0  0  0  0  0  0  0
    4.8490   -0.8160   -0.0560 H   0  0  0  0  0  0  0  0  0  0  0  0
    3.9670   -2.2680    0.4750 H   0  0  0  0  0  0  0  0  0  0  0  0
 11 12  1  0  0  0  0
 10 11  2  0  0  0  0
  1 10  1  0  0  0  0
  9 11  1  0  0  0  0
  1  2  1  0  0  0  0
  1  7  1  0  0  0  0
  7  9  2  0  0  0  0
  2  3  1  0  0  0  0
  7  8  1  0  0  0  0
  3  4  1  0  0  0  0
  4  5  2  0  0  0  0
  4  6  1  0  0  0  0
  2 13  1  0  0  0  0
  2 14  1  0  0  0  0
  3 15  1  0  0  0  0
  3 16  1  0  0  0  0
  6 17  1  0  0  0  0
  8 18  1  0  0  0  0
  8 19  1  0  0  0  0
  8 20  1  0  0  0  0
 12 21  1  0  0  0  0
 12 22  1  0  0  0  0
 12 23  1  0  0  0  0
M  END
> <OPENEYE_ISO_SMILES>
Cc1nc(n(n1)CCC(=O)O)C

> <OPENEYE_INCHI>
InChI=1S/C7H11N3O2/c1-5-8-6(2)10(9-5)4-3-7(11)12/h3-4H2,1-2H3,(H,11,12)

> <OPENEYE_INCHIKEY>
ZEQPXXPPGJVSJN-UHFFFAOYSA-N

> <FORMULA>
C7H11N3O2

$$$$
