EW9
  -OEChem-02242320023D

 88 90  0     1  0  0  0  0  0999 V2000
   -6.1930    1.5440    1.5740 C   0  0  0  0  0  0  0  0  0  0  0  0
   -2.9040    0.9160    2.3810 C   0  0  0  0  0  0  0  0  0  0  0  0
    1.6520   -0.0150    1.1160 C   0  0  2  0  0  0  0  0  0  0  0  0
    2.4350   -0.0700   -0.1700 C   0  0  0  0  0  0  0  0  0  0  0  0
    4.5320    0.0600   -1.4040 C   0  0  2  0  0  0  0  0  0  0  0  0
    4.5490   -1.3980   -1.8660 C   0  0  1  0  0  0  0  0  0  0  0  0
    5.3960   -1.5260   -3.0090 O   0  0  0  0  0  0  0  0  0  0  0  0
    5.9660    0.5330   -1.1570 C   0  0  0  0  0  0  0  0  0  0  0  0
   -7.8310   -0.3770   -0.8750 C   0  0  0  0  0  0  0  0  0  0  0  0
  -10.0670   -0.1130   -1.6660 C   0  0  0  0  0  0  0  0  0  0  0  0
  -10.2120   -1.6020   -1.9890 C   0  0  0  0  0  0  0  0  0  0  0  0
   -9.6190    0.6390   -2.9210 C   0  0  0  0  0  0  0  0  0  0  0  0
  -11.4140    0.4390   -1.1940 C   0  0  0  0  0  0  0  0  0  0  0  0
   -7.1600    0.3740    1.3550 C   0  0  0  0  0  0  0  0  0  0  0  0
   -4.7600    1.0540    1.3770 C   0  0  0  0  0  0  0  0  0  0  0  0
   -4.2470    0.1810    2.5290 C   0  0  0  0  0  0  0  0  0  0  0  0
   -4.5220    0.4440   -0.0040 C   0  0  0  0  0  0  0  0  0  0  0  0
   -5.4990   -0.7190   -0.2140 C   0  0  0  0  0  0  0  0  0  0  0  0
   -3.7000    2.0880    1.7790 C   0  0  0  0  0  0  0  0  0  0  0  0
   -0.6770    0.4540    1.6560 C   0  0  0  0  0  0  0  0  0  0  0  0
    5.9620    2.0300   -0.8390 C   0  0  1  0  0  0  0  0  0  0  0  0
    7.3690    2.5200   -0.5820 C   0  0  0  0  0  0  0  0  0  0  0  0
    6.3860    4.1010   -1.9710 C   0  0  0  0  0  0  0  0  0  0  0  0
    5.4960    2.8430   -2.0690 C   0  0  0  0  0  0  0  0  0  0  0  0
    2.0630   -1.1850    2.0130 C   0  0  0  0  0  0  0  0  0  0  0  0
    3.5010   -0.9790    2.4930 C   0  0  0  0  0  0  0  0  0  0  0  0
    3.5720    0.2760    3.3660 C   0  0  0  0  0  0  0  0  0  0  0  0
    3.9450   -2.1940    3.3100 C   0  0  0  0  0  0  0  0  0  0  0  0
   -6.8650   -0.2450    0.0560 N   0  0  0  0  0  0  0  0  0  0  0  0
    0.2200   -0.1060    0.8210 N   0  0  0  0  0  0  0  0  0  0  0  0
    3.7610    0.1700   -0.1630 N   0  0  0  0  0  0  0  0  0  0  0  0
    7.5810    3.6780   -1.2320 N   0  0  0  0  0  0  0  0  0  0  0  0
   -7.5760   -0.8900   -1.9470 O   0  0  0  0  0  0  0  0  0  0  0  0
   -9.0780    0.0610   -0.6180 O   0  0  0  0  0  0  0  0  0  0  0  0
   -1.9950    0.2850    1.4410 O   0  0  0  0  0  0  0  0  0  0  0  0
    8.1880    1.9520    0.1100 O   0  0  0  0  0  0  0  0  0  0  0  0
    1.8710   -0.3290   -1.2120 O   0  0  0  0  0  0  0  0  0  0  0  0
   -0.2960    1.1120    2.6050 O   0  0  0  0  0  0  0  0  0  0  0  0
    5.1770   -2.4500   -0.5270 S   0  0  0  0  0  0  0  0  0  0  0  0
   -6.4100    2.3350    0.8570 H   0  0  0  0  0  0  0  0  0  0  0  0
   -6.3100    1.9280    2.5880 H   0  0  0  0  0  0  0  0  0  0  0  0
   -2.4290    1.1550    3.3320 H   0  0  0  0  0  0  0  0  0  0  0  0
    1.8590    0.9250    1.6280 H   0  0  0  0  0  0  0  0  0  0  0  0
    4.0730    0.6800   -2.1740 H   0  0  0  0  0  0  0  0  0  0  0  0
    3.5370   -1.7090   -2.1270 H   0  0  0  0  0  0  0  0  0  0  0  0
    6.3140   -1.2670   -2.8500 H   0  0  0  0  0  0  0  0  0  0  0  0
    6.3900   -0.0160   -0.3160 H   0  0  0  0  0  0  0  0  0  0  0  0
    6.5670    0.3530   -2.0480 H   0  0  0  0  0  0  0  0  0  0  0  0
  -10.5320   -2.1380   -1.0950 H   0  0  0  0  0  0  0  0  0  0  0  0
  -10.9540   -1.7330   -2.7760 H   0  0  0  0  0  0  0  0  0  0  0  0
   -9.2530   -1.9960   -2.3250 H   0  0  0  0  0  0  0  0  0  0  0  0
  -10.3610    0.5080   -3.7080 H   0  0  0  0  0  0  0  0  0  0  0  0
   -9.5160    1.7000   -2.6910 H   0  0  0  0  0  0  0  0  0  0  0  0
   -8.6590    0.2450   -3.2570 H   0  0  0  0  0  0  0  0  0  0  0  0
  -11.7330   -0.0970   -0.3010 H   0  0  0  0  0  0  0  0  0  0  0  0
  -11.3110    1.5000   -0.9650 H   0  0  0  0  0  0  0  0  0  0  0  0
  -12.1560    0.3090   -1.9820 H   0  0  0  0  0  0  0  0  0  0  0  0
   -7.0300   -0.3610    2.1480 H   0  0  0  0  0  0  0  0  0  0  0  0
   -8.1860    0.7420    1.3620 H   0  0  0  0  0  0  0  0  0  0  0  0
   -4.1930   -0.8800    2.2830 H   0  0  0  0  0  0  0  0  0  0  0  0
   -4.7470    0.3720    3.4780 H   0  0  0  0  0  0  0  0  0  0  0  0
   -4.6870    1.2010   -0.7700 H   0  0  0  0  0  0  0  0  0  0  0  0
   -3.4980    0.0770   -0.0680 H   0  0  0  0  0  0  0  0  0  0  0  0
   -5.4310   -1.0720   -1.2430 H   0  0  0  0  0  0  0  0  0  0  0  0
   -5.2530   -1.5310    0.4700 H   0  0  0  0  0  0  0  0  0  0  0  0
   -4.0490    2.8060    2.5210 H   0  0  0  0  0  0  0  0  0  0  0  0
   -3.2060    2.5610    0.9300 H   0  0  0  0  0  0  0  0  0  0  0  0
    5.3210    2.2350    0.0190 H   0  0  0  0  0  0  0  0  0  0  0  0
    6.6620    4.4470   -2.9670 H   0  0  0  0  0  0  0  0  0  0  0  0
    5.8650    4.8910   -1.4290 H   0  0  0  0  0  0  0  0  0  0  0  0
    5.6900    2.2980   -2.9930 H   0  0  0  0  0  0  0  0  0  0  0  0
    4.4400    3.1040   -1.9870 H   0  0  0  0  0  0  0  0  0  0  0  0
    1.3960   -1.2350    2.8740 H   0  0  0  0  0  0  0  0  0  0  0  0
    1.9980   -2.1150    1.4490 H   0  0  0  0  0  0  0  0  0  0  0  0
    4.1580   -0.8600    1.6320 H   0  0  0  0  0  0  0  0  0  0  0  0
    2.9580    0.1360    4.2550 H   0  0  0  0  0  0  0  0  0  0  0  0
    4.6060    0.4540    3.6630 H   0  0  0  0  0  0  0  0  0  0  0  0
    3.2040    1.1330    2.8010 H   0  0  0  0  0  0  0  0  0  0  0  0
    3.8940   -3.0880    2.6890 H   0  0  0  0  0  0  0  0  0  0  0  0
    4.9690   -2.0470    3.6530 H   0  0  0  0  0  0  0  0  0  0  0  0
    3.2880   -2.3120    4.1720 H   0  0  0  0  0  0  0  0  0  0  0  0
   -0.0820   -0.5690    0.0240 H   0  0  0  0  0  0  0  0  0  0  0  0
    4.2050    0.4160    0.6640 H   0  0  0  0  0  0  0  0  0  0  0  0
    8.4170    4.1710   -1.2140 H   0  0  0  0  0  0  0  0  0  0  0  0
    5.2660   -3.8380   -1.1450 O   0  0  0  0  0  0  0  0  0  0  0  0
    6.5240   -2.1160   -0.2220 O   0  0  0  0  0  0  0  0  0  0  0  0
    4.2040   -2.5840    0.5000 O   0  0  0  0  0  0  0  0  0  0  0  0
    5.5910   -4.5180   -0.5390 H   0  0  0  0  0  0  0  0  0  0  0  0
 10 12  1  0  0  0  0
 10 11  1  0  0  0  0
 10 34  1  0  0  0  0
 10 13  1  0  0  0  0
  9 34  1  0  0  0  0
 17 18  1  0  0  0  0
 18 29  1  0  0  0  0
  9 29  1  0  0  0  0
  9 33  2  0  0  0  0
 15 17  1  0  0  0  0
 14 29  1  0  0  0  0
 22 36  2  0  0  0  0
 15 19  1  0  0  0  0
 15 16  1  0  0  0  0
  1 15  1  0  0  0  0
 22 32  1  0  0  0  0
 21 22  1  0  0  0  0
 23 32  1  0  0  0  0
  1 14  1  0  0  0  0
  2 19  1  0  0  0  0
  2 16  1  0  0  0  0
 20 38  2  0  0  0  0
  2 35  1  0  0  0  0
 20 35  1  0  0  0  0
  8 21  1  0  0  0  0
 21 24  1  0  0  0  0
 20 30  1  0  0  0  0
 23 24  1  0  0  0  0
 26 27  1  0  0  0  0
  5  8  1  0  0  0  0
  3 30  1  0  0  0  0
  6 39  1  0  0  0  0
  3  4  1  0  0  0  0
  3 25  1  0  0  0  0
  5 31  1  0  0  0  0
  4 31  1  0  0  0  0
  5  6  1  0  0  0  0
  4 37  2  0  0  0  0
 25 26  1  0  0  0  0
 26 28  1  0  0  0  0
  6  7  1  0  0  0  0
  1 40  1  0  0  0  0
  1 41  1  0  0  0  0
  2 42  1  0  0  0  0
  3 43  1  0  0  0  0
  5 44  1  0  0  0  0
  6 45  1  0  0  0  0
  7 46  1  0  0  0  0
  8 47  1  0  0  0  0
  8 48  1  0  0  0  0
 11 49  1  0  0  0  0
 11 50  1  0  0  0  0
 11 51  1  0  0  0  0
 12 52  1  0  0  0  0
 12 53  1  0  0  0  0
 12 54  1  0  0  0  0
 13 55  1  0  0  0  0
 13 56  1  0  0  0  0
 13 57  1  0  0  0  0
 14 58  1  0  0  0  0
 14 59  1  0  0  0  0
 16 60  1  0  0  0  0
 16 61  1  0  0  0  0
 17 62  1  0  0  0  0
 17 63  1  0  0  0  0
 18 64  1  0  0  0  0
 18 65  1  0  0  0  0
 19 66  1  0  0  0  0
 19 67  1  0  0  0  0
 21 68  1  0  0  0  0
 23 69  1  0  0  0  0
 23 70  1  0  0  0  0
 24 71  1  0  0  0  0
 24 72  1  0  0  0  0
 25 73  1  0  0  0  0
 25 74  1  0  0  0  0
 26 75  1  0  0  0  0
 27 76  1  0  0  0  0
 27 77  1  0  0  0  0
 27 78  1  0  0  0  0
 28 79  1  0  0  0  0
 28 80  1  0  0  0  0
 28 81  1  0  0  0  0
 30 82  1  0  0  0  0
 31 83  1  0  0  0  0
 32 84  1  0  0  0  0
 39 85  1  0  0  0  0
 39 86  2  0  0  0  0
 39 87  2  0  0  0  0
 85 88  1  0  0  0  0
M  END
> <OPENEYE_ISO_SMILES>
CC(C)C[C@@H](C(=O)N[C@@H](C[C@@H]1CCNC1=O)[C@@H](O)S(=O)(=O)O)NC(=O)OC2CC3(C2)CCN(CC3)C(=O)OC(C)(C)C

> <OPENEYE_INCHI>
InChI=1S/C27H46N4O10S/c1-16(2)12-19(22(33)29-20(23(34)42(37,38)39)13-17-6-9-28-21(17)32)30-24(35)40-18-14-27(15-18)7-10-31(11-8-27)25(36)41-26(3,4)5/h16-20,23,34H,6-15H2,1-5H3,(H,28,32)(H,29,33)(H,30,35)(H,37,38,39)/t17-,19-,20-,23-/m0/s1

> <OPENEYE_INCHIKEY>
UCJPXTXBXDDVDN-UDSSINMLSA-N

> <FORMULA>
C27H46N4O10S

$$$$
