@<TRIPOS>MOLECULE
/home/pku/3cl/gett_pdb/7TWW/7TWW_mol2/ligand/7TWW_AR6.pdb
 57 60 0 0 0
SMALL
GASTEIGER

@<TRIPOS>ATOM
      1  N1        14.9590    1.6340    6.1840 N.2   201  AR6201     -0.2420
      2  C2        14.7000    0.4500    5.6110 C.2   201  AR6201      0.1049
      3  N3        14.5560    0.1960    4.3120 N.pl3 201  AR6201     -0.1840
      4  C4        14.7370    1.2920    3.5630 C.ar  201  AR6201      0.1528
      5  C5        15.0450    2.5650    4.0250 C.ar  201  AR6201      0.1287
      6  C6        15.1610    2.7070    5.4170 C.3   201  AR6201      0.2004
      7  N6        15.4680    3.9130    6.0080 N.3   201  AR6201     -0.2985
      8  N7        15.1850    3.4240    2.9540 N.ar  201  AR6201     -0.2346
      9  C8        14.9690    2.6800    1.8840 C.ar  201  AR6201      0.0999
     10  N9        14.6800    1.3870    2.2120 N.ar  201  AR6201     -0.2877
     11  PA        18.0240    1.5100   -1.5870 P.3   201  AR6201      0.2182
     12  PB        19.5760   -0.1450   -3.4880 P.3   201  AR6201      0.2182
     13  C1'       14.3950    0.2520    1.3340 C.3   201  AR6201      0.1665
     14  O1A       17.5960    2.4600   -2.6580 O.co2 201  AR6201     -0.5170
     15  O1B       20.4810   -1.2880   -3.1590 O.3   201  AR6201     -0.4371
     16  C1D       21.5020    4.5700   -2.1910 C.3   201  AR6201      0.1854
     17  O1D       21.2550    5.6930   -2.8940 O.3   201  AR6201     -0.3649
     18  C2'       13.9060    0.5200    0.0020 C.3   201  AR6201      0.1285
     19  O2'       12.4910    0.7380    0.0800 O.3   201  AR6201     -0.3847
     20  O2A       18.4780    2.0740   -0.2820 O.3   201  AR6201     -0.4371
     21  O2B       18.3570   -0.3850   -4.3180 O.co2 201  AR6201     -0.5170
     22  C2D       22.9920    4.1320   -2.2280 C.3   201  AR6201      0.1339
     23  O2D       23.8880    5.2510   -1.9450 O.3   201  AR6201     -0.3841
     24  C3'       14.3190   -0.7320   -0.7950 C.3   201  AR6201      0.1135
     25  O3'       13.3870   -1.7760   -0.6680 O.3   201  AR6201     -0.3864
     26  O3A       19.1790    0.5000   -2.0580 O.3   201  AR6201     -0.2703
     27  C3D       23.1870    3.4550   -3.4340 C.3   201  AR6201      0.1141
     28  O3D       23.6910    4.2840   -4.5190 O.3   201  AR6201     -0.3864
     29  C4'       15.6320   -1.1300   -0.0710 C.3   201  AR6201      0.1133
     30  O4'       15.6560   -0.4830    1.1700 O.3   201  AR6201     -0.3456
     31  C4D       21.7560    2.9010   -3.7710 C.3   201  AR6201      0.1138
     32  O4D       20.8990    3.4080   -2.8040 O.3   201  AR6201     -0.3407
     33  C5'       16.9080   -0.7690   -0.8260 C.3   201  AR6201      0.0836
     34  O5'       16.7620    0.5380   -1.3680 O.3   201  AR6201     -0.3246
     35  C5D       21.6690    1.4050   -3.7030 C.3   201  AR6201      0.0837
     36  O5D       20.3790    1.0280   -4.1950 O.3   201  AR6201     -0.3246
     37  H2        14.5600   -0.2650    6.1870 H     201  AR6201      0.1015
     38  HN6       14.8470    4.4890    6.1590 H     201  AR6201      0.1209
     39 HN6A       16.2810    4.0900    6.2260 H     201  AR6201      0.1209
     40  H8        14.9770    3.0040    1.0140 H     201  AR6201      0.1030
     41  H1'       13.7780   -0.3090    1.7630 H     201  AR6201      0.0866
     42  H1D       21.2100    4.6600   -1.3060 H     201  AR6201      0.0935
     43  H2'       14.3320    1.2790   -0.3470 H     201  AR6201      0.0665
     44 HO2'       12.2400    1.1590   -0.5910 H     201  AR6201      0.2101
     45  H2D       23.1130    3.5030   -1.5410 H     201  AR6201      0.0671
     46 HO2D       24.3510    5.0750   -1.2550 H     201  AR6201      0.2101
     47  H3'       14.4830   -0.5200   -1.6940 H     201  AR6201      0.0647
     48 HO3'       13.1660   -2.0410   -1.4260 H     201  AR6201      0.2100
     49  H3D       23.7720    2.7360   -3.2900 H     201  AR6201      0.0648
     50 HO3D       23.6670    3.8420   -5.2440 H     201  AR6201      0.2100
     51  H4'       15.6200   -2.0560    0.0770 H     201  AR6201      0.0647
     52  H4D       21.4930    3.2030   -4.6190 H     201  AR6201      0.0647
     53  H5'       17.6400   -0.7870   -0.2380 H     201  AR6201      0.0591
     54 H5'A       17.0480   -1.3840   -1.5220 H     201  AR6201      0.0591
     55  H5D       22.3600    1.0110   -4.2540 H     201  AR6201      0.0591
     56 H5DA       21.7700    1.1110   -2.7850 H     201  AR6201      0.0591
     57  HD1       20.6790    6.1620   -2.4820 H     201  AR6201      0.2126
@<TRIPOS>UNITY_ATOM_ATTR
14 1
charge -1
21 1
charge -1
@<TRIPOS>BOND
     1    50    28    1
     2    52    31    1
     3    28    27    1
     4    21    12    2
     5    55    35    1
     6    36    35    1
     7    36    12    1
     8    31    35    1
     9    31    27    1
    10    31    32    1
    11    35    56    1
    12    12    15    1
    13    12    26    1
    14    27    49    1
    15    27    22    1
    16    17    57    1
    17    17    16    1
    18    32    16    1
    19    14    11    2
    20    22    16    1
    21    22    23    1
    22    22    45    1
    23    16    42    1
    24    26    11    1
    25    23    46    1
    26    47    24    1
    27    11    34    1
    28    11    20    1
    29    54    33    1
    30    48    25    1
    31    34    33    1
    32    33    53    1
    33    33    29    1
    34    24    25    1
    35    24    29    1
    36    24    18    1
    37    44    19    1
    38    43    18    1
    39    29    51    1
    40    29    30    1
    41    18    19    1
    42    18    13    1
    43    40     9    1
    44    30    13    1
    45    13    41    1
    46    13    10    1
    47     9    10   ar
    48     9     8   ar
    49    10     4   ar
    50     8     5   ar
    51     4     5   ar
    52     4     3    1
    53     5     6    1
    54     3     2    1
    55     6     7    1
    56     6     1    1
    57     2     1    2
    58     2    37    1
    59     7    38    1
    60     7    39    1
