YVP
  -OEChem-02242320043D

 82 83  0     1  0  0  0  0  0999 V2000
    8.3690    2.9340    1.2530 C   0  0  0  0  0  0  0  0  0  0  0  0
    4.1030    0.7020    0.4840 C   0  0  0  0  0  0  0  0  0  0  0  0
    5.1280    1.6550   -0.0750 C   0  0  0  0  0  0  0  0  0  0  0  0
    6.2760    1.8120    0.9240 C   0  0  0  0  0  0  0  0  0  0  0  0
    9.3020    3.8750    0.6130 C   0  0  0  0  0  0  0  0  0  0  0  0
   10.0470    4.6250    0.1030 C   0  0  0  0  0  0  0  0  0  0  0  0
    4.2740    0.1980    1.5740 O   0  0  0  0  0  0  0  0  0  0  0  0
    7.2480    2.7160    0.3940 O   0  0  0  0  0  0  0  0  0  0  0  0
    2.9960    0.4100   -0.2270 N   0  0  0  0  0  0  0  0  0  0  0  0
    2.0000   -0.5160    0.3170 C   0  0  1  0  0  0  0  0  0  0  0  0
    0.6550   -0.2270   -0.2990 C   0  0  0  0  0  0  0  0  0  0  0  0
    0.5410    0.6660   -1.1120 O   0  0  0  0  0  0  0  0  0  0  0  0
    2.4100   -1.9540   -0.0070 C   0  0  0  0  0  0  0  0  0  0  0  0
    3.6940   -2.2840    0.7090 C   0  0  0  0  0  0  0  0  0  0  0  0
    4.9090   -2.0390    0.0980 C   0  0  0  0  0  0  0  0  0  0  0  0
    3.6560   -2.8270    1.9800 C   0  0  0  0  0  0  0  0  0  0  0  0
    6.0870   -2.3420    0.7560 C   0  0  0  0  0  0  0  0  0  0  0  0
    4.8340   -3.1290    2.6380 C   0  0  0  0  0  0  0  0  0  0  0  0
    6.0490   -2.8900    2.0240 C   0  0  0  0  0  0  0  0  0  0  0  0
   -0.4200   -0.9590    0.0530 N   0  0  0  0  0  0  0  0  0  0  0  0
   -1.7270   -0.6770   -0.5460 C   0  0  2  0  0  0  0  0  0  0  0  0
   -2.8170   -1.1440    0.3840 C   0  0  0  0  0  0  0  0  0  0  0  0
   -2.5300   -1.6610    1.4430 O   0  0  0  0  0  0  0  0  0  0  0  0
   -1.8450   -1.4140   -1.8820 C   0  0  0  0  0  0  0  0  0  0  0  0
   -0.8340   -0.8610   -2.8520 C   0  0  0  0  0  0  0  0  0  0  0  0
    0.4310   -1.4140   -2.9230 C   0  0  0  0  0  0  0  0  0  0  0  0
   -1.1730    0.1960   -3.6760 C   0  0  0  0  0  0  0  0  0  0  0  0
    1.3590   -0.9070   -3.8130 C   0  0  0  0  0  0  0  0  0  0  0  0
   -0.2450    0.7030   -4.5670 C   0  0  0  0  0  0  0  0  0  0  0  0
    1.0220    0.1540   -4.6330 C   0  0  0  0  0  0  0  0  0  0  0  0
   -4.1100   -0.9860    0.0390 N   0  0  0  0  0  0  0  0  0  0  0  0
   -5.1700   -1.4400    0.9430 C   0  0  1  0  0  0  0  0  0  0  0  0
   -6.4460   -0.6410    0.6740 C   0  0  0  0  0  0  0  0  0  0  0  0
   -6.2120    0.8290    1.0300 C   0  0  0  0  0  0  0  0  0  0  0  0
   -7.4890    1.6280    0.7610 C   0  0  0  0  0  0  0  0  0  0  0  0
   -7.2650    3.0350    1.1020 N   0  0  0  0  0  0  0  0  0  0  0  0
   -8.2780    3.9510    0.9420 C   0  0  0  0  0  0  0  0  0  0  0  0
   -8.0680    5.2720    1.2610 N   0  0  0  0  0  0  0  0  0  0  0  0
   -9.4380    3.5670    0.4870 N   0  0  0  0  0  0  0  0  0  0  0  0
   -5.4360   -2.9050    0.7100 C   0  0  0  0  0  0  0  0  0  0  0  0
   -5.0160   -3.4440   -0.2860 O   0  0  0  0  0  0  0  0  0  0  0  0
   -6.2250   -3.6970    1.7200 C   0  0  0  0  0  0  0  0  0  0  0  0
    8.8760    1.9860    1.4360 H   0  0  0  0  0  0  0  0  0  0  0  0
    8.0250    3.3500    2.2000 H   0  0  0  0  0  0  0  0  0  0  0  0
    5.5150    1.2620   -1.0150 H   0  0  0  0  0  0  0  0  0  0  0  0
    4.6640    2.6250   -0.2500 H   0  0  0  0  0  0  0  0  0  0  0  0
    5.8890    2.2050    1.8640 H   0  0  0  0  0  0  0  0  0  0  0  0
    6.7400    0.8410    1.1000 H   0  0  0  0  0  0  0  0  0  0  0  0
   10.7130    5.2970   -0.3540 H   0  0  0  0  0  0  0  0  0  0  0  0
    2.8590    0.8130   -1.0980 H   0  0  0  0  0  0  0  0  0  0  0  0
    1.9390   -0.3910    1.3980 H   0  0  0  0  0  0  0  0  0  0  0  0
    1.6260   -2.6380    0.3180 H   0  0  0  0  0  0  0  0  0  0  0  0
    2.5570   -2.0560   -1.0830 H   0  0  0  0  0  0  0  0  0  0  0  0
    4.9390   -1.6120   -0.8930 H   0  0  0  0  0  0  0  0  0  0  0  0
    2.7060   -3.0140    2.4600 H   0  0  0  0  0  0  0  0  0  0  0  0
    7.0360   -2.1520    0.2780 H   0  0  0  0  0  0  0  0  0  0  0  0
    4.8040   -3.5530    3.6310 H   0  0  0  0  0  0  0  0  0  0  0  0
    6.9690   -3.1270    2.5380 H   0  0  0  0  0  0  0  0  0  0  0  0
   -0.3280   -1.6730    0.7030 H   0  0  0  0  0  0  0  0  0  0  0  0
   -1.8260    0.3960   -0.7130 H   0  0  0  0  0  0  0  0  0  0  0  0
   -1.6580   -2.4770   -1.7280 H   0  0  0  0  0  0  0  0  0  0  0  0
   -2.8490   -1.2770   -2.2840 H   0  0  0  0  0  0  0  0  0  0  0  0
    0.6940   -2.2430   -2.2830 H   0  0  0  0  0  0  0  0  0  0  0  0
   -2.1620    0.6260   -3.6240 H   0  0  0  0  0  0  0  0  0  0  0  0
    2.3470   -1.3390   -3.8680 H   0  0  0  0  0  0  0  0  0  0  0  0
   -0.5100    1.5290   -5.2100 H   0  0  0  0  0  0  0  0  0  0  0  0
    1.7470    0.5510   -5.3280 H   0  0  0  0  0  0  0  0  0  0  0  0
   -4.3390   -0.5730   -0.8080 H   0  0  0  0  0  0  0  0  0  0  0  0
   -4.8560   -1.2870    1.9760 H   0  0  0  0  0  0  0  0  0  0  0  0
   -6.7100   -0.7220   -0.3800 H   0  0  0  0  0  0  0  0  0  0  0  0
   -7.2580   -1.0370    1.2830 H   0  0  0  0  0  0  0  0  0  0  0  0
   -5.9480    0.9100    2.0840 H   0  0  0  0  0  0  0  0  0  0  0  0
   -5.4000    1.2250    0.4200 H   0  0  0  0  0  0  0  0  0  0  0  0
   -7.7530    1.5470   -0.2940 H   0  0  0  0  0  0  0  0  0  0  0  0
   -8.3010    1.2320    1.3700 H   0  0  0  0  0  0  0  0  0  0  0  0
   -6.4020    3.3210    1.4400 H   0  0  0  0  0  0  0  0  0  0  0  0
   -8.7820    5.9180    1.1480 H   0  0  0  0  0  0  0  0  0  0  0  0
  -10.1520    4.2130    0.3740 H   0  0  0  0  0  0  0  0  0  0  0  0
   -7.2850   -3.6520    1.4690 H   0  0  0  0  0  0  0  0  0  0  0  0
   -5.8930   -4.7350    1.7070 H   0  0  0  0  0  0  0  0  0  0  0  0
   -6.0690   -3.2780    2.7140 H   0  0  0  0  0  0  0  0  0  0  0  0
   -7.2050    5.5570    1.6000 H   0  0  0  0  0  0  0  0  0  0  0  0
 28 30  2  0  0  0  0
 29 30  1  0  0  0  0
 26 28  1  0  0  0  0
 27 29  2  0  0  0  0
 25 26  2  0  0  0  0
 15 17  2  0  0  0  0
 17 19  1  0  0  0  0
 25 27  1  0  0  0  0
 14 15  1  0  0  0  0
 24 25  1  0  0  0  0
 18 19  2  0  0  0  0
 21 24  1  0  0  0  0
 13 14  1  0  0  0  0
 14 16  2  0  0  0  0
 16 18  1  0  0  0  0
 10 13  1  0  0  0  0
 20 21  1  0  0  0  0
 21 22  1  0  0  0  0
 11 20  1  0  0  0  0
 22 31  1  0  0  0  0
 31 32  1  0  0  0  0
 11 12  2  0  0  0  0
 10 11  1  0  0  0  0
  9 10  1  0  0  0  0
 22 23  2  0  0  0  0
 32 40  1  0  0  0  0
 32 33  1  0  0  0  0
  2  9  1  0  0  0  0
 40 42  1  0  0  0  0
 40 41  2  0  0  0  0
 33 34  1  0  0  0  0
 34 35  1  0  0  0  0
  1  5  1  0  0  0  0
  5  6  3  0  0  0  0
  1  8  1  0  0  0  0
  4  8  1  0  0  0  0
  2  7  2  0  0  0  0
  2  3  1  0  0  0  0
 35 36  1  0  0  0  0
  3  4  1  0  0  0  0
 36 37  1  0  0  0  0
 37 38  1  0  0  0  0
 37 39  2  0  0  0  0
  1 44  1  0  0  0  0
  1 43  1  0  0  0  0
 21 60  1  0  0  0  0
 24 62  1  0  0  0  0
 24 61  1  0  0  0  0
 32 69  1  0  0  0  0
 30 67  1  0  0  0  0
 28 65  1  0  0  0  0
 29 66  1  0  0  0  0
 33 71  1  0  0  0  0
 33 70  1  0  0  0  0
 10 51  1  0  0  0  0
  3 46  1  0  0  0  0
  3 45  1  0  0  0  0
 13 53  1  0  0  0  0
 13 52  1  0  0  0  0
  4 48  1  0  0  0  0
  4 47  1  0  0  0  0
  6 49  1  0  0  0  0
 26 63  1  0  0  0  0
 27 64  1  0  0  0  0
 42 79  1  0  0  0  0
 42 80  1  0  0  0  0
 42 81  1  0  0  0  0
 34 73  1  0  0  0  0
 34 72  1  0  0  0  0
 35 74  1  0  0  0  0
 35 75  1  0  0  0  0
 19 58  1  0  0  0  0
 17 56  1  0  0  0  0
 15 54  1  0  0  0  0
 16 55  1  0  0  0  0
 18 57  1  0  0  0  0
  9 50  1  0  0  0  0
 20 59  1  0  0  0  0
 31 68  1  0  0  0  0
 36 76  1  0  0  0  0
 38 82  1  0  0  0  0
 38 77  1  0  0  0  0
 39 78  1  0  0  0  0
M  END
> <OPENEYE_ISO_SMILES>
[H]/N=C(\N)/NCCC[C@@H](C(=O)C)NC(=O)[C@H](Cc1ccccc1)NC(=O)[C@@H](Cc2ccccc2)NC(=O)CCOCC#C

> <OPENEYE_INCHI>
InChI=1S/C31H40N6O5/c1-3-18-42-19-16-28(39)35-26(20-23-11-6-4-7-12-23)29(40)37-27(21-24-13-8-5-9-14-24)30(41)36-25(22(2)38)15-10-17-34-31(32)33/h1,4-9,11-14,25-27H,10,15-21H2,2H3,(H,35,39)(H,36,41)(H,37,40)(H4,32,33,34)/t25-,26+,27-/m0/s1

> <OPENEYE_INCHIKEY>
JNSZEVHYEISGKR-VJGNERBWSA-N

> <FORMULA>
C31H40N6O5

$$$$
