W6M
  -OEChem-02242320043D

 30 31  0     0  0  0  0  0  0999 V2000
    1.3460   -0.0280    0.0160 C   0  0  0  0  0  0  0  0  0  0  0  0
    3.5040    1.7190    0.1180 C   0  0  0  0  0  0  0  0  0  0  0  0
    5.1050   -0.1780   -0.0950 C   0  0  0  0  0  0  0  0  0  0  0  0
   -6.3300    1.2750   -1.0340 C   0  0  0  0  0  0  0  0  0  0  0  0
   -5.2320    0.5350   -0.3160 C   0  0  0  0  0  0  0  0  0  0  0  0
   -3.4870   -0.5860    0.1040 C   0  0  0  0  0  0  0  0  0  0  0  0
   -2.2080   -1.3770   -0.0080 C   0  0  0  0  0  0  0  0  0  0  0  0
    0.1910   -0.9500   -0.0370 C   0  0  0  0  0  0  0  0  0  0  0  0
    1.1390    1.3460    0.1520 C   0  0  0  0  0  0  0  0  0  0  0  0
    2.2160    2.2080    0.2010 C   0  0  0  0  0  0  0  0  0  0  0  0
    3.7260    0.3450   -0.0120 C   0  0  0  0  0  0  0  0  0  0  0  0
    2.6430   -0.5300   -0.0630 C   0  0  0  0  0  0  0  0  0  0  0  0
   -5.1300    0.3660    0.9690 N   0  0  0  0  0  0  0  0  0  0  0  0
   -1.0640   -0.4630    0.0450 N   0  0  0  0  0  0  0  0  0  0  0  0
   -4.1800   -0.0780   -0.8870 N   0  0  0  0  0  0  0  0  0  0  0  0
   -4.1330   -0.2730    1.2300 O   0  0  0  0  0  0  0  0  0  0  0  0
    0.3720   -2.1460   -0.1550 O   0  0  0  0  0  0  0  0  0  0  0  0
    6.1510    0.6700   -0.0450 O   0  0  0  0  0  0  0  0  0  0  0  0
    5.2960   -1.3720   -0.2070 O   0  0  0  0  0  0  0  0  0  0  0  0
    4.3430    2.3990    0.1580 H   0  0  0  0  0  0  0  0  0  0  0  0
   -6.0540    2.3250   -1.1360 H   0  0  0  0  0  0  0  0  0  0  0  0
   -6.4760    0.8400   -2.0230 H   0  0  0  0  0  0  0  0  0  0  0  0
   -7.2550    1.1970   -0.4630 H   0  0  0  0  0  0  0  0  0  0  0  0
   -2.1460   -2.0850    0.8180 H   0  0  0  0  0  0  0  0  0  0  0  0
   -2.1970   -1.9180   -0.9540 H   0  0  0  0  0  0  0  0  0  0  0  0
    0.1340    1.7360    0.2170 H   0  0  0  0  0  0  0  0  0  0  0  0
    2.0510    3.2710    0.3050 H   0  0  0  0  0  0  0  0  0  0  0  0
    2.8090   -1.5930   -0.1630 H   0  0  0  0  0  0  0  0  0  0  0  0
   -1.2090    0.4910    0.1390 H   0  0  0  0  0  0  0  0  0  0  0  0
    7.0350    0.2810   -0.1030 H   0  0  0  0  0  0  0  0  0  0  0  0
  3 19  2  0  0  0  0
  3 18  1  0  0  0  0
  3 11  1  0  0  0  0
 11 12  2  0  0  0  0
  2 11  1  0  0  0  0
  1 12  1  0  0  0  0
  8 17  2  0  0  0  0
  2 10  2  0  0  0  0
  1  8  1  0  0  0  0
  1  9  2  0  0  0  0
  8 14  1  0  0  0  0
  9 10  1  0  0  0  0
  7 14  1  0  0  0  0
  6 16  1  0  0  0  0
 13 16  1  0  0  0  0
  6  7  1  0  0  0  0
  6 15  2  0  0  0  0
  5 13  2  0  0  0  0
  5 15  1  0  0  0  0
  4  5  1  0  0  0  0
  2 20  1  0  0  0  0
  4 21  1  0  0  0  0
  4 22  1  0  0  0  0
  4 23  1  0  0  0  0
  7 24  1  0  0  0  0
  7 25  1  0  0  0  0
  9 26  1  0  0  0  0
 10 27  1  0  0  0  0
 12 28  1  0  0  0  0
 14 29  1  0  0  0  0
 18 30  1  0  0  0  0
M  END
> <OPENEYE_ISO_SMILES>
Cc1nc(on1)CNC(=O)c2cccc(c2)C(=O)O

> <OPENEYE_INCHI>
InChI=1S/C12H11N3O4/c1-7-14-10(19-15-7)6-13-11(16)8-3-2-4-9(5-8)12(17)18/h2-5H,6H2,1H3,(H,13,16)(H,17,18)

> <OPENEYE_INCHIKEY>
MSLQEHYKFTUMQL-UHFFFAOYSA-N

> <FORMULA>
C12H11N3O4

$$$$
