@<TRIPOS>MOLECULE
/home/pku/3cl/gett_pdb/5SQR/5SQR_mol2/ligand/5SQR_QUC.pdb
 38 40 0 0 0
SMALL
GASTEIGER

@<TRIPOS>ATOM
      1  C18      -47.7470  -28.8750    3.6420 C.ar  201  QUC201     -0.0293
      2  C16      -49.8630  -29.0590    2.4840 C.ar  201  QUC201      0.1401
      3  C17      -48.4930  -28.9650    2.4480 C.ar  201  QUC201      0.0464
      4  C14      -49.3540  -29.1020    0.3740 C.ar  201  QUC201      0.0305
      5  C13      -48.1680  -28.9930    1.0760 C.ar  201  QUC201      0.1320
      6  C19      -48.4620  -28.8780    4.8420 C.ar  201  QUC201      0.0598
      7  C01      -43.4270  -30.3600    0.6670 C.3   201  QUC201     -0.0472
      8  C02      -44.7110  -30.6950    1.3970 C.3   201  QUC201      0.0369
      9  C03      -44.6280  -32.1660    1.8360 C.3   201  QUC201      0.0156
     10  C04      -44.2770  -32.2420    3.3570 C.2   201  QUC201      0.0463
     11  C07      -45.8320  -33.0310    1.6100 C.3   201  QUC201     -0.0424
     12  C08      -46.7120  -32.7230    0.4500 C.3   201  QUC201     -0.0379
     13  C09      -46.1770  -31.5820   -0.4000 C.3   201  QUC201      0.0208
     14  C21      -49.8450  -28.9740    4.8040 C.ar  201  QUC201      0.0482
     15  N10      -45.8010  -30.4260    0.4470 N.3   201  QUC201     -0.1731
     16  N15      -50.3450  -29.1340    1.2370 N.ar  201  QUC201     -0.3439
     17  N22      -50.4850  -29.0560    3.6620 N.ar  201  QUC201     -0.2360
     18  O05      -43.6270  -31.3210    3.9190 O.co2 201  QUC201     -0.5495
     19  O06      -44.6220  -33.2600    4.0120 O.co2 201  QUC201     -0.5495
     20  O12      -46.4590  -28.2960   -0.9660 O.2   201  QUC201     -0.1528
     21  O23      -45.7080  -27.9520    1.1410 O.2   201  QUC201     -0.1528
     22  S11      -46.5110  -28.8980    0.3680 S.O2  201  QUC201      0.0632
     23 CL2       -47.6510  -28.7690    6.4260 Cl    201  QUC201     -0.0820
     24 H181      -46.6620  -28.8180    3.6320 H     201  QUC201      0.0640
     25 H141      -49.4480  -29.1490   -0.7020 H     201  QUC201      0.0827
     26 H013      -42.5810  -30.5960    1.3010 H     201  QUC201      0.0245
     27 H011      -43.4140  -29.3050    0.4170 H     201  QUC201      0.0245
     28 H012      -43.3720  -30.9490   -0.2470 H     201  QUC201      0.0245
     29 H021      -44.8270  -30.0450    2.2660 H     201  QUC201      0.0483
     30 H031      -43.8070  -32.5940    1.3030 H     201  QUC201      0.0376
     31 H072      -46.4390  -32.9900    2.4990 H     201  QUC201      0.0272
     32 H071      -45.4760  -34.0460    1.4840 H     201  QUC201      0.0272
     33 H081      -47.7020  -32.4600    0.8050 H     201  QUC201      0.0278
     34 H082      -46.8030  -33.6070   -0.1760 H     201  QUC201      0.0278
     35 H091      -46.9320  -31.2690   -1.1180 H     201  QUC201      0.0444
     36 H092      -45.2920  -31.9320   -0.9200 H     201  QUC201      0.0444
     37 H211      -50.4120  -28.9780    5.7220 H     201  QUC201      0.0845
     38 H151      -51.3080  -29.2050    0.9950 H     201  QUC201      0.1668
@<TRIPOS>UNITY_ATOM_ATTR
19 1
charge -1
@<TRIPOS>BOND
     1    35    13    1
     2    20    22    2
     3    36    13    1
     4    25     4    1
     5    13    15    1
     6    13    12    1
     7    28     7    1
     8    34    12    1
     9    22    15    1
    10    22     5    1
    11    22    21    2
    12     4     5   ar
    13     4    16   ar
    14    27     7    1
    15    15     8    1
    16    12    33    1
    17    12    11    1
    18     7    26    1
    19     7     8    1
    20    38    16    1
    21     5     3   ar
    22    16     2   ar
    23    30     9    1
    24     8     9    1
    25     8    29    1
    26    32    11    1
    27    11     9    1
    28    11    31    1
    29     9    10    1
    30     3     2   ar
    31     3     1   ar
    32     2    17   ar
    33    10    18   ar
    34    10    19   ar
    35    24     1    1
    36     1     6   ar
    37    17    14   ar
    38    14     6   ar
    39    14    37    1
    40     6    23    1
