T8S
  -OEChem-02242320043D

 38 38  0     0  0  0  0  0  0999 V2000
   -2.6820    0.1360   -0.3210 N   0  0  0  0  0  0  0  0  0  0  0  0
    1.4490   -0.6980    0.0730 C   0  0  0  0  0  0  0  0  0  0  0  0
    0.0900   -0.3960   -0.5030 C   0  0  0  0  0  0  0  0  0  0  0  0
   -0.8880   -1.5050   -0.1080 C   0  0  0  0  0  0  0  0  0  0  0  0
   -2.2600   -1.2130   -0.7240 C   0  0  0  0  0  0  0  0  0  0  0  0
   -1.7750    1.2640   -0.5720 C   0  0  0  0  0  0  0  0  0  0  0  0
   -3.8810    0.3350    0.2630 C   0  0  0  0  0  0  0  0  0  0  0  0
    2.4770    0.1470   -0.1470 N   0  0  0  0  0  0  0  0  0  0  0  0
    4.8160   -0.2760   -0.7220 C   0  0  0  0  0  0  0  0  0  0  0  0
    1.6190   -1.7000    0.7350 O   0  0  0  0  0  0  0  0  0  0  0  0
    3.7990   -0.1460    0.4130 C   0  0  0  0  0  0  0  0  0  0  0  0
   -4.8530   -0.8090    0.3970 C   0  0  0  0  0  0  0  0  0  0  0  0
    4.2200    0.9890    1.3480 C   0  0  0  0  0  0  0  0  0  0  0  0
    2.2720    1.3570   -0.9460 C   0  0  0  0  0  0  0  0  0  0  0  0
   -0.4090    0.9440    0.0420 C   0  0  0  0  0  0  0  0  0  0  0  0
   -4.1770    1.4340    0.6800 O   0  0  0  0  0  0  0  0  0  0  0  0
    0.1590   -0.3430   -1.5890 H   0  0  0  0  0  0  0  0  0  0  0  0
   -0.5210   -2.4630   -0.4760 H   0  0  0  0  0  0  0  0  0  0  0  0
   -0.9770   -1.5420    0.9780 H   0  0  0  0  0  0  0  0  0  0  0  0
   -2.9850   -1.9450   -0.3660 H   0  0  0  0  0  0  0  0  0  0  0  0
   -2.1920   -1.2650   -1.8100 H   0  0  0  0  0  0  0  0  0  0  0  0
   -1.6670    1.4140   -1.6460 H   0  0  0  0  0  0  0  0  0  0  0  0
   -2.1800    2.1670   -0.1140 H   0  0  0  0  0  0  0  0  0  0  0  0
    4.8570    0.6590   -1.2820 H   0  0  0  0  0  0  0  0  0  0  0  0
    5.7990   -0.4940   -0.3060 H   0  0  0  0  0  0  0  0  0  0  0  0
    4.5160   -1.0850   -1.3880 H   0  0  0  0  0  0  0  0  0  0  0  0
    3.7570   -1.0810    0.9720 H   0  0  0  0  0  0  0  0  0  0  0  0
   -4.7380   -1.2710    1.3780 H   0  0  0  0  0  0  0  0  0  0  0  0
   -5.8710   -0.4350    0.2880 H   0  0  0  0  0  0  0  0  0  0  0  0
   -4.6530   -1.5490   -0.3780 H   0  0  0  0  0  0  0  0  0  0  0  0
    4.2610    1.9240    0.7890 H   0  0  0  0  0  0  0  0  0  0  0  0
    3.4950    1.0820    2.1570 H   0  0  0  0  0  0  0  0  0  0  0  0
    5.2030    0.7710    1.7640 H   0  0  0  0  0  0  0  0  0  0  0  0
    1.9760    2.1780   -0.2930 H   0  0  0  0  0  0  0  0  0  0  0  0
    3.1990    1.6170   -1.4570 H   0  0  0  0  0  0  0  0  0  0  0  0
    1.4880    1.1780   -1.6820 H   0  0  0  0  0  0  0  0  0  0  0  0
   -0.5020    0.8840    1.1260 H   0  0  0  0  0  0  0  0  0  0  0  0
    0.3000    1.7300   -0.2200 H   0  0  0  0  0  0  0  0  0  0  0  0
  9 11  1  0  0  0  0
 11 13  1  0  0  0  0
  8 11  1  0  0  0  0
  8 14  1  0  0  0  0
  2  8  1  0  0  0  0
  2 10  2  0  0  0  0
  2  3  1  0  0  0  0
  3  4  1  0  0  0  0
  4  5  1  0  0  0  0
  1  5  1  0  0  0  0
  1  6  1  0  0  0  0
  6 15  1  0  0  0  0
  3 15  1  0  0  0  0
  1  7  1  0  0  0  0
  7 16  2  0  0  0  0
  7 12  1  0  0  0  0
  3 17  1  0  0  0  0
  4 18  1  0  0  0  0
  4 19  1  0  0  0  0
  5 20  1  0  0  0  0
  5 21  1  0  0  0  0
  6 22  1  0  0  0  0
  6 23  1  0  0  0  0
  9 24  1  0  0  0  0
  9 25  1  0  0  0  0
  9 26  1  0  0  0  0
 11 27  1  0  0  0  0
 12 28  1  0  0  0  0
 12 29  1  0  0  0  0
 12 30  1  0  0  0  0
 13 31  1  0  0  0  0
 13 32  1  0  0  0  0
 13 33  1  0  0  0  0
 14 34  1  0  0  0  0
 14 35  1  0  0  0  0
 14 36  1  0  0  0  0
 15 37  1  0  0  0  0
 15 38  1  0  0  0  0
M  END
> <OPENEYE_ISO_SMILES>
CC(C)N(C)C(=O)C1CCN(CC1)C(=O)C

> <OPENEYE_INCHI>
InChI=1S/C12H22N2O2/c1-9(2)13(4)12(16)11-5-7-14(8-6-11)10(3)15/h9,11H,5-8H2,1-4H3

> <OPENEYE_INCHIKEY>
CELKOAKJTFSHIV-UHFFFAOYSA-N

> <FORMULA>
C12H22N2O2

$$$$
