8H3
  -OEChem-02242320013D

 97 99  0     1  0  0  0  0  0999 V2000
    4.9200    0.8900   -1.3000 C   0  0  0  0  0  0  0  0  0  0  0  0
   -3.3900   -0.3140    0.3410 C   0  0  2  0  0  0  0  0  0  0  0  0
   -2.1920   -0.2880   -0.5720 C   0  0  0  0  0  0  0  0  0  0  0  0
   -0.9110    1.2880    0.9560 C   0  0  0  0  0  0  0  0  0  0  0  0
    0.0870    0.7160   -1.0820 C   0  0  2  0  0  0  0  0  0  0  0  0
    1.2290   -0.1290   -0.5790 C   0  0  0  0  0  0  0  0  0  0  0  0
   -0.2570    2.5920    0.4520 C   0  0  2  0  0  0  0  0  0  0  0  0
    3.4660   -1.0620   -0.8300 C   0  0  1  0  0  0  0  0  0  0  0  0
   -0.7700    3.1990   -0.8560 C   0  0  0  0  0  0  0  0  0  0  0  0
    3.2790   -2.5620   -1.0710 C   0  0  0  0  0  0  0  0  0  0  0  0
    5.7820    4.5310    1.9060 C   0  0  0  0  0  0  0  0  0  0  0  0
    4.4080   -3.3330   -0.3860 C   0  0  2  0  0  0  0  0  0  0  0  0
    4.2560   -4.8520   -0.6370 C   0  0  0  0  0  0  0  0  0  0  0  0
    3.4690   -5.3000    0.6150 C   0  0  0  0  0  0  0  0  0  0  0  0
   -2.1200    2.7050   -1.3790 C   0  0  0  0  0  0  0  0  0  0  0  0
    4.3090   -3.1940    1.1170 C   0  0  0  0  0  0  0  0  0  0  0  0
   -0.4600    4.6740   -1.1180 C   0  0  0  0  0  0  0  0  0  0  0  0
   -2.0010   -1.2520    2.1940 C   0  0  0  0  0  0  0  0  0  0  0  0
   -8.5120   -0.4750    1.1210 C   0  0  0  0  0  0  0  0  0  0  0  0
   -9.3000   -0.0840   -1.2170 C   0  0  0  0  0  0  0  0  0  0  0  0
   -8.1380    1.7420    0.0310 C   0  0  0  0  0  0  0  0  0  0  0  0
    5.3380    2.7830    0.1770 C   0  0  0  0  0  0  0  0  0  0  0  0
   -3.2490   -1.4680    1.3350 C   0  0  0  0  0  0  0  0  0  0  0  0
   -4.4850   -1.5200    2.2350 C   0  0  0  0  0  0  0  0  0  0  0  0
   -3.1190   -2.7870    0.5700 C   0  0  0  0  0  0  0  0  0  0  0  0
    0.4010    2.2150   -0.8920 C   0  0  2  0  0  0  0  0  0  0  0  0
    5.5950    3.0320    1.6640 C   0  0  0  0  0  0  0  0  0  0  0  0
    6.0380    4.7790    3.3940 C   0  0  0  0  0  0  0  0  0  0  0  0
   -8.2010    0.2310   -0.2000 C   0  0  0  0  0  0  0  0  0  0  0  0
    4.7360   -0.5860   -1.5380 C   0  0  1  0  0  0  0  0  0  0  0  0
   -5.7930   -0.0680    0.0180 C   0  0  0  0  0  0  0  0  0  0  0  0
   -4.6060   -0.5000   -0.4540 N   0  0  0  0  0  0  0  0  0  0  0  0
   -1.1290    0.4820   -0.2680 N   0  0  0  0  0  0  0  0  0  0  0  0
    2.3090   -0.3350   -1.3580 N   0  0  0  0  0  0  0  0  0  0  0  0
    5.1590    1.3470   -0.0550 N   0  0  0  0  0  0  0  0  0  0  0  0
    3.7860   -4.3110    1.6510 N   0  0  0  0  0  0  0  0  0  0  0  0
   -6.9120   -0.2390   -0.7130 N   0  0  0  0  0  0  0  0  0  0  0  0
    4.6520   -2.2170    1.7480 O   0  0  0  0  0  0  0  0  0  0  0  0
   -5.8530    0.4760    1.1040 O   0  0  0  0  0  0  0  0  0  0  0  0
   -2.1840   -0.9620   -1.5810 O   0  0  0  0  0  0  0  0  0  0  0  0
    1.1760   -0.6230    0.5270 O   0  0  0  0  0  0  0  0  0  0  0  0
    4.8580    1.6670   -2.2300 O   0  0  0  0  0  0  0  0  0  0  0  0
    4.6190   -0.8310   -2.9410 O   0  0  0  0  0  0  0  0  0  0  0  0
   -3.4520    0.6290    0.8850 H   0  0  0  0  0  0  0  0  0  0  0  0
   -0.2420    0.7670    1.6400 H   0  0  0  0  0  0  0  0  0  0  0  0
   -1.8620    1.5030    1.4430 H   0  0  0  0  0  0  0  0  0  0  0  0
   -0.1110    0.4990   -2.1320 H   0  0  0  0  0  0  0  0  0  0  0  0
    0.2520    3.2180    1.1850 H   0  0  0  0  0  0  0  0  0  0  0  0
    3.5550   -0.8750    0.2410 H   0  0  0  0  0  0  0  0  0  0  0  0
    2.3200   -2.8790   -0.6600 H   0  0  0  0  0  0  0  0  0  0  0  0
    3.2990   -2.7620   -2.1420 H   0  0  0  0  0  0  0  0  0  0  0  0
    6.6320    4.8890    1.3260 H   0  0  0  0  0  0  0  0  0  0  0  0
    4.8820    5.0630    1.5980 H   0  0  0  0  0  0  0  0  0  0  0  0
    5.3780   -2.9820   -0.7390 H   0  0  0  0  0  0  0  0  0  0  0  0
    3.6840   -5.0420   -1.5460 H   0  0  0  0  0  0  0  0  0  0  0  0
    5.2300   -5.3390   -0.6810 H   0  0  0  0  0  0  0  0  0  0  0  0
    2.3990   -5.3010    0.4070 H   0  0  0  0  0  0  0  0  0  0  0  0
   -2.8540    3.5080   -1.3040 H   0  0  0  0  0  0  0  0  0  0  0  0
   -2.0170    2.4030   -2.4220 H   0  0  0  0  0  0  0  0  0  0  0  0
   -2.4510    1.8540   -0.7850 H   0  0  0  0  0  0  0  0  0  0  0  0
    0.2350    5.0390   -0.3630 H   0  0  0  0  0  0  0  0  0  0  0  0
   -0.0130    4.7810   -2.1060 H   0  0  0  0  0  0  0  0  0  0  0  0
   -1.3830    5.2530   -1.0730 H   0  0  0  0  0  0  0  0  0  0  0  0
   -2.1120   -0.3330    2.7700 H   0  0  0  0  0  0  0  0  0  0  0  0
   -1.8780   -2.0950    2.8750 H   0  0  0  0  0  0  0  0  0  0  0  0
   -1.1260   -1.1750    1.5500 H   0  0  0  0  0  0  0  0  0  0  0  0
   -9.4710   -0.1250    1.5030 H   0  0  0  0  0  0  0  0  0  0  0  0
   -8.5570   -1.5510    0.9560 H   0  0  0  0  0  0  0  0  0  0  0  0
   -7.7290   -0.2500    1.8460 H   0  0  0  0  0  0  0  0  0  0  0  0
   -9.0780    0.4190   -2.1590 H   0  0  0  0  0  0  0  0  0  0  0  0
   -9.3450   -1.1610   -1.3820 H   0  0  0  0  0  0  0  0  0  0  0  0
  -10.2590    0.2650   -0.8360 H   0  0  0  0  0  0  0  0  0  0  0  0
   -9.0970    2.0920    0.4120 H   0  0  0  0  0  0  0  0  0  0  0  0
   -7.3550    1.9660    0.7550 H   0  0  0  0  0  0  0  0  0  0  0  0
   -7.9170    2.2450   -0.9110 H   0  0  0  0  0  0  0  0  0  0  0  0
    4.4380    3.3160   -0.1310 H   0  0  0  0  0  0  0  0  0  0  0  0
    6.1890    3.1410   -0.4030 H   0  0  0  0  0  0  0  0  0  0  0  0
   -4.5780   -0.5810    2.7800 H   0  0  0  0  0  0  0  0  0  0  0  0
   -5.3740   -1.6740    1.6230 H   0  0  0  0  0  0  0  0  0  0  0  0
   -4.3850   -2.3430    2.9430 H   0  0  0  0  0  0  0  0  0  0  0  0
   -3.0190   -3.6090    1.2780 H   0  0  0  0  0  0  0  0  0  0  0  0
   -4.0080   -2.9410   -0.0420 H   0  0  0  0  0  0  0  0  0  0  0  0
   -2.2390   -2.7500   -0.0710 H   0  0  0  0  0  0  0  0  0  0  0  0
    1.3950    2.5720   -1.1660 H   0  0  0  0  0  0  0  0  0  0  0  0
    6.4940    2.4990    1.9720 H   0  0  0  0  0  0  0  0  0  0  0  0
    4.7440    2.6730    2.2440 H   0  0  0  0  0  0  0  0  0  0  0  0
    5.1880    4.4210    3.9740 H   0  0  0  0  0  0  0  0  0  0  0  0
    6.9380    4.2470    3.7010 H   0  0  0  0  0  0  0  0  0  0  0  0
    6.1710    5.8470    3.5660 H   0  0  0  0  0  0  0  0  0  0  0  0
    5.5960   -1.1280   -1.1450 H   0  0  0  0  0  0  0  0  0  0  0  0
   -4.5580   -0.9340   -1.3200 H   0  0  0  0  0  0  0  0  0  0  0  0
    2.3210   -0.0010   -2.2690 H   0  0  0  0  0  0  0  0  0  0  0  0
    5.2130    0.7260    0.6880 H   0  0  0  0  0  0  0  0  0  0  0  0
   -6.8630   -0.6730   -1.5790 H   0  0  0  0  0  0  0  0  0  0  0  0
    3.8730   -0.3800   -3.3590 H   0  0  0  0  0  0  0  0  0  0  0  0
    3.7940   -6.2920    0.9280 H   0  0  0  0  0  0  0  0  0  0  0  0
    3.6360   -4.4450    2.6000 H   0  0  0  0  0  0  0  0  0  0  0  0
 11 28  1  0  0  0  0
 11 27  1  0  0  0  0
 18 23  1  0  0  0  0
 23 24  1  0  0  0  0
 22 27  1  0  0  0  0
  2 23  1  0  0  0  0
 23 25  1  0  0  0  0
  4  7  1  0  0  0  0
  4 33  1  0  0  0  0
  7 26  1  0  0  0  0
  7  9  1  0  0  0  0
 31 39  2  0  0  0  0
  6 41  2  0  0  0  0
 22 35  1  0  0  0  0
  2  3  1  0  0  0  0
  2 32  1  0  0  0  0
 21 29  1  0  0  0  0
  1 35  1  0  0  0  0
  3 33  1  0  0  0  0
  5 33  1  0  0  0  0
  3 40  2  0  0  0  0
 31 32  1  0  0  0  0
 31 37  1  0  0  0  0
  9 26  1  0  0  0  0
  5 26  1  0  0  0  0
  5  6  1  0  0  0  0
  6 34  1  0  0  0  0
  9 17  1  0  0  0  0
  9 15  1  0  0  0  0
 13 14  1  0  0  0  0
 12 13  1  0  0  0  0
 29 37  1  0  0  0  0
 20 29  1  0  0  0  0
 19 29  1  0  0  0  0
 14 36  1  0  0  0  0
  1 30  1  0  0  0  0
  1 42  2  0  0  0  0
 30 43  1  0  0  0  0
  8 34  1  0  0  0  0
  8 30  1  0  0  0  0
  8 10  1  0  0  0  0
 10 12  1  0  0  0  0
 12 16  1  0  0  0  0
 16 36  1  0  0  0  0
 16 38  2  0  0  0  0
  2 44  1  0  0  0  0
  4 45  1  0  0  0  0
  4 46  1  0  0  0  0
  5 47  1  0  0  0  0
  7 48  1  0  0  0  0
  8 49  1  0  0  0  0
 10 50  1  0  0  0  0
 10 51  1  0  0  0  0
 11 52  1  0  0  0  0
 11 53  1  0  0  0  0
 12 54  1  0  0  0  0
 13 55  1  0  0  0  0
 13 56  1  0  0  0  0
 14 57  1  0  0  0  0
 15 58  1  0  0  0  0
 15 59  1  0  0  0  0
 15 60  1  0  0  0  0
 17 61  1  0  0  0  0
 17 62  1  0  0  0  0
 17 63  1  0  0  0  0
 18 64  1  0  0  0  0
 18 65  1  0  0  0  0
 18 66  1  0  0  0  0
 19 67  1  0  0  0  0
 19 68  1  0  0  0  0
 19 69  1  0  0  0  0
 20 70  1  0  0  0  0
 20 71  1  0  0  0  0
 20 72  1  0  0  0  0
 21 73  1  0  0  0  0
 21 74  1  0  0  0  0
 21 75  1  0  0  0  0
 22 76  1  0  0  0  0
 22 77  1  0  0  0  0
 24 78  1  0  0  0  0
 24 79  1  0  0  0  0
 24 80  1  0  0  0  0
 25 81  1  0  0  0  0
 25 82  1  0  0  0  0
 25 83  1  0  0  0  0
 26 84  1  0  0  0  0
 27 85  1  0  0  0  0
 27 86  1  0  0  0  0
 28 87  1  0  0  0  0
 28 88  1  0  0  0  0
 28 89  1  0  0  0  0
 30 90  1  0  0  0  0
 32 91  1  0  0  0  0
 34 92  1  0  0  0  0
 35 93  1  0  0  0  0
 37 94  1  0  0  0  0
 43 95  1  0  0  0  0
 14 96  1  0  0  0  0
 36 97  1  0  0  0  0
M  END
> <OPENEYE_ISO_SMILES>
CCCCNC(=O)[C@@H]([C@H](C[C@@H]1CCNC1=O)NC(=O)[C@@H]2[C@@H]3[C@@H](C3(C)C)CN2C(=O)[C@H](C(C)(C)C)NC(=O)NC(C)(C)C)O

> <OPENEYE_INCHI>
InChI=1S/C31H54N6O6/c1-10-11-13-32-26(41)22(38)19(15-17-12-14-33-24(17)39)34-25(40)21-20-18(31(20,8)9)16-37(21)27(42)23(29(2,3)4)35-28(43)36-30(5,6)7/h17-23,38H,10-16H2,1-9H3,(H,32,41)(H,33,39)(H,34,40)(H2,35,36,43)/t17-,18-,19-,20-,21-,22+,23+/m0/s1

> <OPENEYE_INCHIKEY>
CYAFTCDKLGXDCI-BLTUZGSGSA-N

> <FORMULA>
C31H54N6O6

$$$$
