@<TRIPOS>MOLECULE
/home/pku/3cl/gett_pdb/7K1O/7K1O_mol2/ligand/7K1O_VQV.pdb
 25 26 0 0 0
SMALL
GASTEIGER

@<TRIPOS>ATOM
      1  O2        33.7570    1.7120  -19.2370 O.2   401  VQV401     -0.2443
      2  N1        34.9960    2.1010  -21.0700 N.ar  401  VQV401     -0.2534
      3  C4        35.7910   -0.5150  -20.9760 C.ar  401  VQV401      0.2846
      4  C2        34.5480    1.2800  -20.1040 C.ar  401  VQV401      0.3546
      5  C6        35.8400    1.6410  -22.0040 C.ar  401  VQV401      0.0870
      6  C5        36.2620    0.3170  -21.9800 C.ar  401  VQV401      0.0814
      7  C1'       34.5580    3.5070  -21.1130 C.3   401  VQV401      0.2420
      8  C2'       35.3320    4.3890  -20.1310 C.3   401  VQV401      0.2311
      9  C3'       35.5780    5.6760  -20.8880 C.3   401  VQV401      0.1904
     10  C4'       35.6280    5.1990  -22.3280 C.3   401  VQV401      0.1776
     11  C5'       35.2100    6.2580  -23.3320 C.3   401  VQV401      0.1858
     12  N3        34.9390   -0.0170  -20.0530 N.ar  401  VQV401     -0.1530
     13  O1P       37.4870    4.1160  -24.7120 O.3   401  VQV401     -0.1145
     14  O2'       36.6090    3.8050  -19.8440 O.3   401  VQV401     -0.2156
     15  O2A       33.4670    8.2000  -19.0540 O.3   401  VQV401     -0.1145
     16  O2B       34.6800    9.0720  -21.0110 O.2   401  VQV401     -0.2224
     17  O2C       35.9400    7.9980  -19.1770 O.3   401  VQV401     -0.1145
     18  O2P       37.9710    6.4880  -24.2570 O.3   401  VQV401     -0.1145
     19  O3'       34.4790    6.5580  -20.6880 O.3   401  VQV401     -0.2674
     20  O3P       37.2360    5.7850  -26.5200 O.2   401  VQV401     -0.2224
     21  O4        36.1870   -1.8180  -20.9250 O.2   401  VQV401     -0.2650
     22  O4'       34.7590    4.0680  -22.4170 O.3   401  VQV401     -0.3307
     23  O5'       35.5560    5.7920  -24.6320 O.3   401  VQV401     -0.2675
     24  P         37.0960    5.5350  -25.0370 P.3   401  VQV401      0.5327
     25  P2        34.6500    7.9880  -19.9650 P.3   401  VQV401      0.5327
@<TRIPOS>BOND
     1    20    24    2
     2    24    13    1
     3    24    23    1
     4    24    18    1
     5    23    11    1
     6    11    10    1
     7    22    10    1
     8    22     7    1
     9    10     9    1
    10     5     6   ar
    11     5     2   ar
    12     6     3   ar
    13     7     2    1
    14     7     8    1
    15     2     4   ar
    16    16    25    2
    17     3    21    2
    18     3    12   ar
    19     9    19    1
    20     9     8    1
    21    19    25    1
    22     8    14    1
    23     4    12   ar
    24     4     1    2
    25    25    17    1
    26    25    15    1
