P6G
  -OEChem-02242320033D

 45 44  0     0  0  0  0  0  0999 V2000
    7.8620   -0.2470   -0.4920 O   0  0  0  0  0  0  0  0  0  0  0  0
    7.0640   -1.3010    0.0520 C   0  0  0  0  0  0  0  0  0  0  0  0
    6.1470   -0.7380    1.1390 C   0  0  0  0  0  0  0  0  0  0  0  0
    5.2190    0.1770    0.5530 O   0  0  0  0  0  0  0  0  0  0  0  0
    4.3110    0.7630    1.4890 C   0  0  0  0  0  0  0  0  0  0  0  0
    3.3690    1.7190    0.7540 C   0  0  0  0  0  0  0  0  0  0  0  0
    2.5500    0.9780   -0.1520 O   0  0  0  0  0  0  0  0  0  0  0  0
    1.6290    1.7800   -0.8930 C   0  0  0  0  0  0  0  0  0  0  0  0
    0.8090    0.8870   -1.8260 C   0  0  0  0  0  0  0  0  0  0  0  0
    0.0000    0.0020   -1.0490 O   0  0  0  0  0  0  0  0  0  0  0  0
   -0.8090   -0.8810   -1.8290 C   0  0  0  0  0  0  0  0  0  0  0  0
   -1.6290   -1.7780   -0.8990 C   0  0  0  0  0  0  0  0  0  0  0  0
   -2.5500   -0.9770   -0.1550 O   0  0  0  0  0  0  0  0  0  0  0  0
   -3.3690   -1.7210    0.7490 C   0  0  0  0  0  0  0  0  0  0  0  0
   -4.3110   -0.7680    1.4860 C   0  0  0  0  0  0  0  0  0  0  0  0
   -5.2190   -0.1780    0.5530 O   0  0  0  0  0  0  0  0  0  0  0  0
   -6.1470    0.7340    1.1420 C   0  0  0  0  0  0  0  0  0  0  0  0
   -7.0640    1.3010    0.0560 C   0  0  0  0  0  0  0  0  0  0  0  0
   -7.8620    0.2490   -0.4910 O   0  0  0  0  0  0  0  0  0  0  0  0
    8.4690   -0.5330   -1.1890 H   0  0  0  0  0  0  0  0  0  0  0  0
    6.4590   -1.7440   -0.7400 H   0  0  0  0  0  0  0  0  0  0  0  0
    7.7130   -2.0630    0.4820 H   0  0  0  0  0  0  0  0  0  0  0  0
    5.6030   -1.5540    1.6150 H   0  0  0  0  0  0  0  0  0  0  0  0
    6.7470   -0.2170    1.8860 H   0  0  0  0  0  0  0  0  0  0  0  0
    3.7290   -0.0220    1.9710 H   0  0  0  0  0  0  0  0  0  0  0  0
    4.8730    1.3140    2.2430 H   0  0  0  0  0  0  0  0  0  0  0  0
    2.7360    2.2330    1.4780 H   0  0  0  0  0  0  0  0  0  0  0  0
    3.9540    2.4510    0.1990 H   0  0  0  0  0  0  0  0  0  0  0  0
    0.9600    2.2950   -0.2030 H   0  0  0  0  0  0  0  0  0  0  0  0
    2.1780    2.5140   -1.4820 H   0  0  0  0  0  0  0  0  0  0  0  0
    0.1700    1.5070   -2.4540 H   0  0  0  0  0  0  0  0  0  0  0  0
    1.4820    0.3050   -2.4560 H   0  0  0  0  0  0  0  0  0  0  0  0
   -1.4820   -0.2970   -2.4570 H   0  0  0  0  0  0  0  0  0  0  0  0
   -0.1700   -1.4990   -2.4590 H   0  0  0  0  0  0  0  0  0  0  0  0
   -2.1780   -2.5100   -1.4900 H   0  0  0  0  0  0  0  0  0  0  0  0
   -0.9600   -2.2950   -0.2110 H   0  0  0  0  0  0  0  0  0  0  0  0
   -3.9540   -2.4520    0.1910 H   0  0  0  0  0  0  0  0  0  0  0  0
   -2.7360   -2.2370    1.4710 H   0  0  0  0  0  0  0  0  0  0  0  0
   -4.8730   -1.3220    2.2380 H   0  0  0  0  0  0  0  0  0  0  0  0
   -3.7290    0.0160    1.9710 H   0  0  0  0  0  0  0  0  0  0  0  0
   -6.7470    0.2110    1.8870 H   0  0  0  0  0  0  0  0  0  0  0  0
   -5.6030    1.5480    1.6200 H   0  0  0  0  0  0  0  0  0  0  0  0
   -7.7130    2.0620    0.4890 H   0  0  0  0  0  0  0  0  0  0  0  0
   -6.4590    1.7460   -0.7340 H   0  0  0  0  0  0  0  0  0  0  0  0
   -8.4690    0.5360   -1.1870 H   0  0  0  0  0  0  0  0  0  0  0  0
  1  2  1  0  0  0  0
  1 20  1  0  0  0  0
  2  3  1  0  0  0  0
  2 21  1  0  0  0  0
  2 22  1  0  0  0  0
  3  4  1  0  0  0  0
  3 23  1  0  0  0  0
  3 24  1  0  0  0  0
  4  5  1  0  0  0  0
  5  6  1  0  0  0  0
  5 25  1  0  0  0  0
  5 26  1  0  0  0  0
  6  7  1  0  0  0  0
  6 27  1  0  0  0  0
  6 28  1  0  0  0  0
  7  8  1  0  0  0  0
  8  9  1  0  0  0  0
  8 29  1  0  0  0  0
  8 30  1  0  0  0  0
  9 10  1  0  0  0  0
  9 31  1  0  0  0  0
  9 32  1  0  0  0  0
 10 11  1  0  0  0  0
 11 12  1  0  0  0  0
 11 33  1  0  0  0  0
 11 34  1  0  0  0  0
 12 13  1  0  0  0  0
 12 35  1  0  0  0  0
 12 36  1  0  0  0  0
 13 14  1  0  0  0  0
 14 15  1  0  0  0  0
 14 37  1  0  0  0  0
 14 38  1  0  0  0  0
 15 16  1  0  0  0  0
 15 39  1  0  0  0  0
 15 40  1  0  0  0  0
 16 17  1  0  0  0  0
 17 18  1  0  0  0  0
 17 41  1  0  0  0  0
 17 42  1  0  0  0  0
 18 19  1  0  0  0  0
 18 43  1  0  0  0  0
 18 44  1  0  0  0  0
 19 45  1  0  0  0  0
M  END
> <OPENEYE_ISO_SMILES>
C(COCCOCCOCCOCCOCCO)O

> <OPENEYE_INCHI>
InChI=1S/C12H26O7/c13-1-3-15-5-7-17-9-11-19-12-10-18-8-6-16-4-2-14/h13-14H,1-12H2

> <OPENEYE_INCHIKEY>
IIRDTKBZINWQAW-UHFFFAOYSA-N

> <FORMULA>
C12H26O7

$$$$
