QMF
  -OEChem-02242320033D

 48 51  0     0  0  0  0  0  0999 V2000
   -1.9530    2.5440   -1.2690 C   0  0  0  0  0  0  0  0  0  0  0  0
   -0.9880    1.6180   -0.8630 C   0  0  0  0  0  0  0  0  0  0  0  0
    0.4370    2.0010   -0.8310 C   0  0  0  0  0  0  0  0  0  0  0  0
    2.7810    1.4870   -0.4070 C   0  0  0  0  0  0  0  0  0  0  0  0
    3.6050    0.3160    0.0630 C   0  0  0  0  0  0  0  0  0  0  0  0
    4.1380   -0.6300   -0.8270 C   0  0  0  0  0  0  0  0  0  0  0  0
    4.0250   -0.6840   -2.2370 C   0  0  0  0  0  0  0  0  0  0  0  0
   -3.6640    0.9030   -0.9120 C   0  0  0  0  0  0  0  0  0  0  0  0
   -3.2820    2.1850   -1.2920 C   0  0  0  0  0  0  0  0  0  0  0  0
    3.4320    0.9770    2.4530 C   0  0  0  0  0  0  0  0  0  0  0  0
    3.8820    0.1120    1.3550 C   0  0  0  0  0  0  0  0  0  0  0  0
    4.8690   -1.6310   -0.1750 C   0  0  0  0  0  0  0  0  0  0  0  0
    5.4650   -2.6550   -0.9180 C   0  0  0  0  0  0  0  0  0  0  0  0
    5.3350   -2.6810   -2.2860 C   0  0  0  0  0  0  0  0  0  0  0  0
    4.6150   -1.6880   -2.9390 C   0  0  0  0  0  0  0  0  0  0  0  0
   -5.4940   -0.3230   -0.0240 C   0  0  0  0  0  0  0  0  0  0  0  0
   -7.2930   -1.6960    0.8810 C   0  0  0  0  0  0  0  0  0  0  0  0
   -8.6940   -1.4300    1.4350 C   0  0  0  0  0  0  0  0  0  0  0  0
   -8.4640   -2.5860    0.4590 C   0  0  0  0  0  0  0  0  0  0  0  0
   -2.7050   -0.0250   -0.5180 C   0  0  0  0  0  0  0  0  0  0  0  0
   -1.3750    0.3290   -0.4870 C   0  0  0  0  0  0  0  0  0  0  0  0
    1.3670    1.1070   -0.4390 N   0  0  0  0  0  0  0  0  0  0  0  0
   -5.0110    0.5430   -0.9360 N   0  0  0  0  0  0  0  0  0  0  0  0
   -6.7680   -0.7540   -0.1110 N   0  0  0  0  0  0  0  0  0  0  0  0
    2.7570    1.9600    2.2140 O   0  0  0  0  0  0  0  0  0  0  0  0
    3.7670    0.6820    3.7250 O   0  0  0  0  0  0  0  0  0  0  0  0
    0.7730    3.1230   -1.1570 O   0  0  0  0  0  0  0  0  0  0  0  0
   -4.7800   -0.7160    0.8790 O   0  0  0  0  0  0  0  0  0  0  0  0
    4.8580   -1.3320    1.5600 S   0  0  0  0  0  0  0  0  0  0  0  0
   -1.6570    3.5410   -1.5600 H   0  0  0  0  0  0  0  0  0  0  0  0
    2.9170    2.3250    0.2770 H   0  0  0  0  0  0  0  0  0  0  0  0
    3.1020    1.7790   -1.4070 H   0  0  0  0  0  0  0  0  0  0  0  0
    3.4660    0.0780   -2.7600 H   0  0  0  0  0  0  0  0  0  0  0  0
   -4.0280    2.9010   -1.6050 H   0  0  0  0  0  0  0  0  0  0  0  0
    6.0290   -3.4270   -0.4160 H   0  0  0  0  0  0  0  0  0  0  0  0
    5.7970   -3.4740   -2.8560 H   0  0  0  0  0  0  0  0  0  0  0  0
    4.5200   -1.7160   -4.0140 H   0  0  0  0  0  0  0  0  0  0  0  0
   -6.5550   -2.1220    1.5600 H   0  0  0  0  0  0  0  0  0  0  0  0
   -8.8790   -1.6820    2.4790 H   0  0  0  0  0  0  0  0  0  0  0  0
   -9.2260   -0.5550    1.0610 H   0  0  0  0  0  0  0  0  0  0  0  0
   -8.8430   -2.4710   -0.5560 H   0  0  0  0  0  0  0  0  0  0  0  0
   -8.4960   -3.5990    0.8620 H   0  0  0  0  0  0  0  0  0  0  0  0
   -3.0060   -1.0190   -0.2230 H   0  0  0  0  0  0  0  0  0  0  0  0
   -0.6320   -0.3890   -0.1730 H   0  0  0  0  0  0  0  0  0  0  0  0
    1.0990    0.2120   -0.1780 H   0  0  0  0  0  0  0  0  0  0  0  0
   -5.6010    0.9170   -1.6100 H   0  0  0  0  0  0  0  0  0  0  0  0
   -7.3380   -0.4400   -0.8310 H   0  0  0  0  0  0  0  0  0  0  0  0
    3.4470    1.2810    4.4140 H   0  0  0  0  0  0  0  0  0  0  0  0
 10 25  2  0  0  0  0
 10 26  1  0  0  0  0
 10 11  1  0  0  0  0
 11 29  1  0  0  0  0
 12 29  1  0  0  0  0
 12 13  2  0  0  0  0
 13 14  1  0  0  0  0
 14 15  2  0  0  0  0
  7 15  1  0  0  0  0
  6  7  2  0  0  0  0
  5  6  1  0  0  0  0
  4  5  1  0  0  0  0
  4 22  1  0  0  0  0
  3 22  1  0  0  0  0
  3 27  2  0  0  0  0
  2  3  1  0  0  0  0
  1  2  2  0  0  0  0
  1  9  1  0  0  0  0
  8  9  2  0  0  0  0
 16 23  1  0  0  0  0
 16 28  2  0  0  0  0
 16 24  1  0  0  0  0
 17 24  1  0  0  0  0
 17 18  1  0  0  0  0
 18 19  1  0  0  0  0
  8 23  1  0  0  0  0
  8 20  1  0  0  0  0
 20 21  2  0  0  0  0
  5 11  2  0  0  0  0
  6 12  1  0  0  0  0
  2 21  1  0  0  0  0
 17 19  1  0  0  0  0
  1 30  1  0  0  0  0
  4 31  1  0  0  0  0
  4 32  1  0  0  0  0
  7 33  1  0  0  0  0
  9 34  1  0  0  0  0
 13 35  1  0  0  0  0
 14 36  1  0  0  0  0
 15 37  1  0  0  0  0
 17 38  1  0  0  0  0
 18 39  1  0  0  0  0
 18 40  1  0  0  0  0
 19 41  1  0  0  0  0
 19 42  1  0  0  0  0
 20 43  1  0  0  0  0
 21 44  1  0  0  0  0
 22 45  1  0  0  0  0
 23 46  1  0  0  0  0
 24 47  1  0  0  0  0
 26 48  1  0  0  0  0
M  END
> <OPENEYE_ISO_SMILES>
c1ccc2c(c1)c(c(s2)C(=O)O)CNC(=O)c3ccc(cc3)NC(=O)NC4CC4

> <OPENEYE_INCHI>
InChI=1S/C21H19N3O4S/c25-19(12-5-7-13(8-6-12)23-21(28)24-14-9-10-14)22-11-16-15-3-1-2-4-17(15)29-18(16)20(26)27/h1-8,14H,9-11H2,(H,22,25)(H,26,27)(H2,23,24,28)

> <OPENEYE_INCHIKEY>
QEXGILIVIRXXHM-UHFFFAOYSA-N

> <FORMULA>
C21H19N3O4S

$$$$
