@<TRIPOS>MOLECULE
/home/pku/3cl/gett_pdb/5SRV/5SRV_mol2/ligand/5SRV_RI3.pdb
 41 45 0 0 0
SMALL
GASTEIGER

@<TRIPOS>ATOM
      1  C18      -44.2830  -29.2260    6.3170 C.ar  201  RI3201      0.1204
      2  C16      -46.6050  -29.1760    6.4360 C.ar  201  RI3201      0.1442
      3  C13      -49.0580  -29.0500    3.6860 C.ar  201  RI3201     -0.0491
      4  C12      -50.4370  -29.0210    3.8650 C.ar  201  RI3201     -0.0257
      5  C11      -50.9830  -29.0480    5.1380 C.ar  201  RI3201      0.1254
      6  C10      -50.1430  -29.0960    6.2340 C.ar  201  RI3201     -0.0025
      7  C20      -44.2950  -27.9690    2.4160 C.3   201  RI3201      0.0200
      8  C02      -46.9080  -27.9260   -0.1770 C.2   201  RI3201      0.0804
      9  C03      -45.8350  -28.4880    0.7720 C.3   201  RI3201      0.1702
     10  C04      -46.4450  -28.8720    2.1860 C.3   201  RI3201      0.0532
     11  C06      -45.4940  -29.1430    4.3360 C.ar  201  RI3201      0.1345
     12  C07      -46.7340  -29.1370    5.0540 C.ar  201  RI3201      0.0663
     13  C08      -48.1730  -29.0970    4.8020 C.ar  201  RI3201      0.0124
     14  C09      -48.7550  -29.1150    6.0650 C.ar  201  RI3201      0.0515
     15  C21      -44.8870  -27.4060    1.3080 C.3   201  RI3201      0.0184
     16  C22      -43.8080  -27.0410    0.2270 C.3   201  RI3201     -0.0335
     17  C23      -43.0650  -25.7190    0.0700 C.3   201  RI3201     -0.0495
     18  C24      -43.9570  -26.2240   -1.0530 C.3   201  RI3201     -0.0495
     19  F14      -52.3360  -29.0270    5.3060 F     201  RI3201     -0.2054
     20  F25      -45.2060  -29.4800    0.2460 F     201  RI3201     -0.2336
     21  N05      -45.3490  -29.1210    2.8760 N.pl3 201  RI3201     -0.3108
     22  N15      -47.8070  -29.1650    7.0020 N.ar  201  RI3201     -0.3389
     23  N17      -45.3960  -29.2200    7.0070 N.ar  201  RI3201     -0.2178
     24  N19      -44.3370  -29.1910    4.9970 N.ar  201  RI3201     -0.2200
     25  O01      -47.2890  -26.7280   -0.0700 O.co2 201  RI3201     -0.5465
     26  O26      -47.4040  -28.6760   -1.0640 O.co2 201  RI3201     -0.5465
     27 H181      -43.3260  -29.2530    6.8370 H     201  RI3201      0.1048
     28 H131      -48.7070  -29.0240    2.6550 H     201  RI3201      0.0625
     29 H121      -51.0960  -28.9850    3.0020 H     201  RI3201      0.0646
     30 H101      -50.5500  -29.1150    7.2350 H     201  RI3201      0.0667
     31 H202      -44.1900  -27.2230    3.1980 H     201  RI3201      0.0468
     32 H201      -43.3370  -28.4290    2.1810 H     201  RI3201      0.0468
     33 H041      -47.0460  -29.7660    2.1230 H     201  RI3201      0.0499
     34 H042      -46.9760  -28.0160    2.6010 H     201  RI3201      0.0499
     35 H211      -45.4640  -26.5320    1.6080 H     201  RI3201      0.0354
     36 H221      -43.1360  -27.8770    0.0810 H     201  RI3201      0.0305
     37 H231      -43.4760  -24.9130    0.6580 H     201  RI3201      0.0268
     38 H232      -42.0020  -25.7910   -0.1180 H     201  RI3201      0.0268
     39 H242      -43.4040  -26.5690   -1.9090 H     201  RI3201      0.0268
     40 H241      -44.9250  -25.7460   -1.1730 H     201  RI3201      0.0268
     41 H151      -47.9770  -29.1890    7.9920 H     201  RI3201      0.1673
@<TRIPOS>UNITY_ATOM_ATTR
25 1
charge -1
@<TRIPOS>BOND
     1    39    18    1
     2    40    18    1
     3    26     8   ar
     4    18    17    1
     5    18    16    1
     6     8    25   ar
     7     8     9    1
     8    38    17    1
     9    17    16    1
    10    17    37    1
    11    36    16    1
    12    16    15    1
    13    20     9    1
    14     9    15    1
    15     9    10    1
    16    15    35    1
    17    15     7    1
    18    33    10    1
    19    32     7    1
    20    10    34    1
    21    10    21    1
    22     7    21    1
    23     7    31    1
    24    28     3    1
    25    21    11    1
    26    29     4    1
    27     3     4   ar
    28     3    13   ar
    29     4     5   ar
    30    11    24   ar
    31    11    12   ar
    32    13    12   ar
    33    13    14   ar
    34    24     1   ar
    35    12     2   ar
    36     5    19    1
    37     5     6   ar
    38    14     6   ar
    39    14    22   ar
    40     6    30    1
    41     1    27    1
    42     1    23   ar
    43     2    22   ar
    44     2    23   ar
    45    22    41    1
