@<TRIPOS>MOLECULE
/home/pku/3cl/gett_pdb/7RNK/7RNK_mol2/ligand/7RNK_5ZT.pdb
 25 27 0 0 0
SMALL
GASTEIGER

@<TRIPOS>ATOM
      1  C2        14.1880   -0.4200   18.0470 C.2   401  5ZT401      0.2672
      2  C6        10.7120   -1.2550   18.4690 C.3   401  5ZT401      0.1123
      3  C5        12.1370   -1.6570   18.8260 C.3   401  5ZT401      0.1152
      4  N7        10.2680   -0.1540   19.3450 N.pl3 401  5ZT401     -0.3040
      5  C8        11.1390    1.0170   19.2110 C.3   401  5ZT401      0.1123
      6  C1        14.6440   -1.6140   17.2380 C.ar  401  5ZT401      0.1442
      7  C10        8.8750    0.0640   19.4520 C.ar  401  5ZT401      0.0488
      8  C11        8.3190    0.9240   20.4140 C.ar  401  5ZT401      0.0143
      9  C12        6.9410    1.1130   20.4950 C.ar  401  5ZT401      0.0004
     10  C13        6.0460    0.4690   19.6390 C.ar  401  5ZT401      0.0212
     11  C14        6.6220   -0.3860   18.6860 C.ar  401  5ZT401      0.0574
     12  C15        7.9880   -0.5980   18.5780 C.ar  401  5ZT401      0.0257
     13  C17       15.9400   -3.6640   17.4100 C.ar  401  5ZT401      0.3715
     14  C20       14.8460   -3.0320   15.2770 C.ar  401  5ZT401      0.2848
     15  C22       14.3440   -1.8410   15.9370 C.ar  401  5ZT401      0.0865
     16  C23        4.5540    0.6810   19.7340 C.3   401  5ZT401      0.2094
     17  C9        12.5840    0.6480   19.5400 C.3   401  5ZT401      0.1152
     18  N16       15.4170   -2.5050   17.9440 N.ar  401  5ZT401     -0.1860
     19  N19       15.6220   -3.8680   16.0830 N.ar  401  5ZT401     -0.1517
     20  N4        13.0290   -0.4920   18.7270 N.am  401  5ZT401     -0.2713
     21  O18       16.6290   -4.4410   18.0610 O.2   401  5ZT401     -0.2425
     22  O21       14.6350   -3.3320   14.1010 O.2   401  5ZT401     -0.2650
     23  O24        4.2780    1.6700   20.7220 O.3   401  5ZT401     -0.2151
     24  O3        14.9200    0.5850   18.0370 O.2   401  5ZT401     -0.2682
     25 CL25        5.5740   -1.2550   17.5470 Cl    401  5ZT401     -0.0824
@<TRIPOS>BOND
     1    22    14    2
     2    14    15   ar
     3    14    19   ar
     4    15     6   ar
     5    19    13   ar
     6     6    18   ar
     7     6     1    1
     8    13    18   ar
     9    13    21    2
    10    25    11    1
    11    24     1    2
    12     1    20   am
    13     2     3    1
    14     2     4    1
    15    12    11   ar
    16    12     7   ar
    17    11    10   ar
    18    20     3    1
    19    20    17    1
    20     5     4    1
    21     5    17    1
    22     4     7    1
    23     7     8   ar
    24    10    16    1
    25    10     9   ar
    26    16    23    1
    27     8     9   ar
