ACY
  -OEChem-02242320013D

  8  7  0     0  0  0  0  0  0999 V2000
    0.0120   -0.0560    0.0020 C   0  0  0  0  0  0  0  0  0  0  0  0
    0.2610   -1.2380   -0.0000 O   0  0  0  0  0  0  0  0  0  0  0  0
    1.0110    0.8400   -0.0000 O   0  0  0  0  0  0  0  0  0  0  0  0
   -1.4210    0.4120   -0.0000 C   0  0  0  0  0  0  0  0  0  0  0  0
    1.9130    0.4930   -0.0030 H   0  0  0  0  0  0  0  0  0  0  0  0
   -1.7680    0.5230    1.0270 H   0  0  0  0  0  0  0  0  0  0  0  0
   -1.4890    1.3720   -0.5120 H   0  0  0  0  0  0  0  0  0  0  0  0
   -2.0420   -0.3200   -0.5170 H   0  0  0  0  0  0  0  0  0  0  0  0
  1  2  2  0  0  0  0
  1  3  1  0  0  0  0
  1  4  1  0  0  0  0
  3  5  1  0  0  0  0
  4  6  1  0  0  0  0
  4  7  1  0  0  0  0
  4  8  1  0  0  0  0
M  END
> <OPENEYE_ISO_SMILES>
CC(=O)O

> <OPENEYE_INCHI>
InChI=1S/C2H4O2/c1-2(3)4/h1H3,(H,3,4)

> <OPENEYE_INCHIKEY>
QTBSBXVTEAMEQO-UHFFFAOYSA-N

> <FORMULA>
C2H4O2

$$$$
