T2L
  -OEChem-02242320043D

 82 86  0     1  0  0  0  0  0999 V2000
   -5.7720   -0.0190    0.4910 N   0  0  0  0  0  0  0  0  0  0  0  0
   -6.8910   -0.2600   -0.2190 C   0  0  0  0  0  0  0  0  0  0  0  0
   -7.8510   -1.2840   -0.0670 C   0  0  0  0  0  0  0  0  0  0  0  0
   -7.7050   -2.2030    0.9130 F   0  0  0  0  0  0  0  0  0  0  0  0
   -8.9340   -1.3490   -0.9100 C   0  0  0  0  0  0  0  0  0  0  0  0
   -9.0990   -0.4120   -1.9210 C   0  0  0  0  0  0  0  0  0  0  0  0
   -8.1750    0.5940   -2.0870 C   0  0  0  0  0  0  0  0  0  0  0  0
   -7.0710    0.6770   -1.2420 C   0  0  0  0  0  0  0  0  0  0  0  0
   -5.7270    1.8140   -1.1790 S   0  0  0  0  0  0  0  0  0  0  0  0
   -5.0560    0.9860    0.1540 C   0  0  0  0  0  0  0  0  0  0  0  0
   -3.7790    1.3870    0.8460 C   0  0  1  0  0  0  0  0  0  0  0  0
   -3.9690    1.3360    2.2620 O   0  0  0  0  0  0  0  0  0  0  0  0
   -2.6580    0.4260    0.4470 C   0  0  2  0  0  0  0  0  0  0  0  0
   -2.9780   -0.9760    0.9690 C   0  0  0  0  0  0  0  0  0  0  0  0
   -1.8970   -1.9530    0.5020 C   0  0  2  0  0  0  0  0  0  0  0  0
   -2.4360   -3.4020    0.5160 C   0  0  0  0  0  0  0  0  0  0  0  0
   -1.1900   -4.1970    0.9680 C   0  0  0  0  0  0  0  0  0  0  0  0
   -0.3730   -3.2440    1.7290 N   0  0  0  0  0  0  0  0  0  0  0  0
   -0.7450   -1.9760    1.4820 C   0  0  0  0  0  0  0  0  0  0  0  0
   -0.2310   -0.9930    1.9720 O   0  0  0  0  0  0  0  0  0  0  0  0
   -1.3920    0.8850    1.0240 N   0  0  0  0  0  0  0  0  0  0  0  0
   -0.2820    0.9300    0.2620 C   0  0  0  0  0  0  0  0  0  0  0  0
   -0.3100    0.5160   -0.8780 O   0  0  0  0  0  0  0  0  0  0  0  0
    0.9970    1.4950    0.8260 C   0  0  2  0  0  0  0  0  0  0  0  0
    0.9630    3.0390    0.7960 C   0  0  1  0  0  0  0  0  0  0  0  0
    2.2950    3.7900    0.8350 C   0  0  0  0  0  0  0  0  0  0  0  0
    3.5330    3.0070    1.2750 C   0  0  0  0  0  0  0  0  0  0  0  0
    2.2620    5.2610    1.2530 C   0  0  0  0  0  0  0  0  0  0  0  0
    1.6750    3.4270   -0.5160 C   0  0  1  0  0  0  0  0  0  0  0  0
    2.0770    2.0850   -1.1640 C   0  0  0  0  0  0  0  0  0  0  0  0
    2.1470    1.1300   -0.0330 N   0  0  0  0  0  0  0  0  0  0  0  0
    3.0510    0.1510    0.1680 C   0  0  0  0  0  0  0  0  0  0  0  0
    2.9440   -0.5860    1.1250 O   0  0  0  0  0  0  0  0  0  0  0  0
    4.1960   -0.0270   -0.7960 C   0  0  2  0  0  0  0  0  0  0  0  0
    3.7700   -0.9680   -1.9250 C   0  0  0  0  0  0  0  0  0  0  0  0
    4.9420   -1.1730   -2.8870 C   0  0  0  0  0  0  0  0  0  0  0  0
    3.3530   -2.3160   -1.3340 C   0  0  0  0  0  0  0  0  0  0  0  0
    2.5900   -0.3560   -2.6820 C   0  0  0  0  0  0  0  0  0  0  0  0
    5.3450   -0.5990   -0.0900 N   0  0  0  0  0  0  0  0  0  0  0  0
    6.5920   -0.3950   -0.5560 C   0  0  0  0  0  0  0  0  0  0  0  0
    6.7640    0.2630   -1.5600 O   0  0  0  0  0  0  0  0  0  0  0  0
    7.7740   -0.9840    0.1700 C   0  0  0  0  0  0  0  0  0  0  0  0
    7.6510   -2.3770    0.2080 F   0  0  0  0  0  0  0  0  0  0  0  0
    8.9530   -0.6370   -0.4990 F   0  0  0  0  0  0  0  0  0  0  0  0
    7.8150   -0.4830    1.4760 F   0  0  0  0  0  0  0  0  0  0  0  0
   -9.6630   -2.1360   -0.7850 H   0  0  0  0  0  0  0  0  0  0  0  0
   -9.9540   -0.4730   -2.5780 H   0  0  0  0  0  0  0  0  0  0  0  0
   -8.3070    1.3210   -2.8750 H   0  0  0  0  0  0  0  0  0  0  0  0
   -3.5100    2.4020    0.5520 H   0  0  0  0  0  0  0  0  0  0  0  0
   -4.2110    0.4610    2.5950 H   0  0  0  0  0  0  0  0  0  0  0  0
   -2.5730    0.3980   -0.6400 H   0  0  0  0  0  0  0  0  0  0  0  0
   -3.0070   -0.9600    2.0590 H   0  0  0  0  0  0  0  0  0  0  0  0
   -3.9470   -1.2950    0.5850 H   0  0  0  0  0  0  0  0  0  0  0  0
   -1.5480   -1.6860   -0.4950 H   0  0  0  0  0  0  0  0  0  0  0  0
   -3.2490   -3.5100    1.2340 H   0  0  0  0  0  0  0  0  0  0  0  0
   -2.7550   -3.7100   -0.4800 H   0  0  0  0  0  0  0  0  0  0  0  0
   -1.4860   -5.0310    1.6040 H   0  0  0  0  0  0  0  0  0  0  0  0
   -0.6390   -4.5600    0.1010 H   0  0  0  0  0  0  0  0  0  0  0  0
    0.3430   -3.4960    2.3320 H   0  0  0  0  0  0  0  0  0  0  0  0
   -1.3540    1.1570    1.9540 H   0  0  0  0  0  0  0  0  0  0  0  0
    1.1530    1.1370    1.8440 H   0  0  0  0  0  0  0  0  0  0  0  0
    0.0570    3.5310    1.1510 H   0  0  0  0  0  0  0  0  0  0  0  0
    3.6940    2.1700    0.5960 H   0  0  0  0  0  0  0  0  0  0  0  0
    4.4040    3.6630    1.2550 H   0  0  0  0  0  0  0  0  0  0  0  0
    3.3850    2.6310    2.2870 H   0  0  0  0  0  0  0  0  0  0  0  0
    1.8550    5.3440    2.2610 H   0  0  0  0  0  0  0  0  0  0  0  0
    3.2740    5.6670    1.2360 H   0  0  0  0  0  0  0  0  0  0  0  0
    1.6350    5.8220    0.5610 H   0  0  0  0  0  0  0  0  0  0  0  0
    1.2960    4.2180   -1.1630 H   0  0  0  0  0  0  0  0  0  0  0  0
    1.3210    1.7680   -1.8830 H   0  0  0  0  0  0  0  0  0  0  0  0
    3.0490    2.1730   -1.6490 H   0  0  0  0  0  0  0  0  0  0  0  0
    4.4720    0.9410   -1.2150 H   0  0  0  0  0  0  0  0  0  0  0  0
    5.7830   -1.6090   -2.3480 H   0  0  0  0  0  0  0  0  0  0  0  0
    4.6390   -1.8430   -3.6910 H   0  0  0  0  0  0  0  0  0  0  0  0
    5.2390   -0.2120   -3.3070 H   0  0  0  0  0  0  0  0  0  0  0  0
    2.4610   -2.1850   -0.7220 H   0  0  0  0  0  0  0  0  0  0  0  0
    3.1400   -3.0160   -2.1420 H   0  0  0  0  0  0  0  0  0  0  0  0
    4.1620   -2.7090   -0.7180 H   0  0  0  0  0  0  0  0  0  0  0  0
    2.8940    0.5950   -3.1210 H   0  0  0  0  0  0  0  0  0  0  0  0
    2.2730   -1.0360   -3.4720 H   0  0  0  0  0  0  0  0  0  0  0  0
    1.7630   -0.1890   -1.9920 H   0  0  0  0  0  0  0  0  0  0  0  0
    5.2070   -1.1250    0.7140 H   0  0  0  0  0  0  0  0  0  0  0  0
 19 20  2  0  0  0  0
 18 19  1  0  0  0  0
 15 19  1  0  0  0  0
 17 18  1  0  0  0  0
 14 15  1  0  0  0  0
 13 14  1  0  0  0  0
 15 16  1  0  0  0  0
 11 12  1  0  0  0  0
 16 17  1  0  0  0  0
 11 13  1  0  0  0  0
 10 11  1  0  0  0  0
 13 21  1  0  0  0  0
 21 22  1  0  0  0  0
 42 45  1  0  0  0  0
 32 33  2  0  0  0  0
  9 10  1  0  0  0  0
  1 10  2  0  0  0  0
  8  9  1  0  0  0  0
 42 44  1  0  0  0  0
 42 43  1  0  0  0  0
 40 42  1  0  0  0  0
 22 24  1  0  0  0  0
 22 23  2  0  0  0  0
 35 36  1  0  0  0  0
 24 31  1  0  0  0  0
 24 25  1  0  0  0  0
 31 32  1  0  0  0  0
 32 34  1  0  0  0  0
 39 40  1  0  0  0  0
 34 39  1  0  0  0  0
  1  2  1  0  0  0  0
 26 27  1  0  0  0  0
 30 31  1  0  0  0  0
 40 41  2  0  0  0  0
 25 26  1  0  0  0  0
 25 29  1  0  0  0  0
 34 35  1  0  0  0  0
 35 38  1  0  0  0  0
 35 37  1  0  0  0  0
  2  8  2  0  0  0  0
  7  8  1  0  0  0  0
 26 28  1  0  0  0  0
 26 29  1  0  0  0  0
  2  3  1  0  0  0  0
 29 30  1  0  0  0  0
  6  7  2  0  0  0  0
  3  4  1  0  0  0  0
  3  5  2  0  0  0  0
  5  6  1  0  0  0  0
  5 46  1  0  0  0  0
  6 47  1  0  0  0  0
  7 48  1  0  0  0  0
 11 49  1  0  0  0  0
 12 50  1  0  0  0  0
 13 51  1  0  0  0  0
 14 52  1  0  0  0  0
 14 53  1  0  0  0  0
 15 54  1  0  0  0  0
 16 55  1  0  0  0  0
 16 56  1  0  0  0  0
 17 57  1  0  0  0  0
 17 58  1  0  0  0  0
 18 59  1  0  0  0  0
 21 60  1  0  0  0  0
 24 61  1  0  0  0  0
 25 62  1  0  0  0  0
 27 63  1  0  0  0  0
 27 64  1  0  0  0  0
 27 65  1  0  0  0  0
 28 66  1  0  0  0  0
 28 67  1  0  0  0  0
 28 68  1  0  0  0  0
 29 69  1  0  0  0  0
 30 70  1  0  0  0  0
 30 71  1  0  0  0  0
 34 72  1  0  0  0  0
 36 73  1  0  0  0  0
 36 74  1  0  0  0  0
 36 75  1  0  0  0  0
 37 76  1  0  0  0  0
 37 77  1  0  0  0  0
 37 78  1  0  0  0  0
 38 79  1  0  0  0  0
 38 80  1  0  0  0  0
 38 81  1  0  0  0  0
 39 82  1  0  0  0  0
M  END
> <OPENEYE_ISO_SMILES>
CC1([C@@H]2[C@H]1[C@H](N(C2)C(=O)[C@H](C(C)(C)C)NC(=O)C(F)(F)F)C(=O)N[C@@H](C[C@@H]3CCNC3=O)[C@@H](c4nc5c(cccc5s4)F)O)C

> <OPENEYE_INCHI>
InChI=1S/C30H37F4N5O5S/c1-28(2,3)22(38-27(44)30(32,33)34)26(43)39-12-14-18(29(14,4)5)20(39)24(42)36-16(11-13-9-10-35-23(13)41)21(40)25-37-19-15(31)7-6-8-17(19)45-25/h6-8,13-14,16,18,20-22,40H,9-12H2,1-5H3,(H,35,41)(H,36,42)(H,38,44)/t13-,14-,16-,18-,20-,21-,22+/m0/s1

> <OPENEYE_INCHIKEY>
HZJVVPOOURAASY-SWSSSNQJSA-N

> <FORMULA>
C30H37F4N5O5S

$$$$
