@<TRIPOS>MOLECULE
/home/pku/3cl/gett_pdb/7FRA/7FRA_mol2/ligand/7FRA_WXO.pdb
 38 40 0 0 0
SMALL
GASTEIGER

@<TRIPOS>ATOM
      1  C18      -45.8340  -33.4340    1.2210 C.3   201  WXO201     -0.0386
      2  C17      -45.7400  -32.1130    1.9780 C.3   201  WXO201      0.0205
      3  C11      -48.5120  -29.1460    4.4580 C.ar  201  WXO201      0.1472
      4  C20      -43.8130  -33.2470   -0.2980 C.3   201  WXO201     -0.0518
      5  C19      -44.4840  -34.0280    0.8250 C.3   201  WXO201     -0.0518
      6  C02      -49.6460  -29.1300    6.7490 C.ar  201  WXO201      0.3283
      7  C04      -47.1940  -29.5510    6.5700 C.ar  201  WXO201      0.2633
      8  C06      -47.2940  -29.4110    5.0520 C.ar  201  WXO201      0.0836
      9  C07      -46.1360  -29.5530    4.2510 C.ar  201  WXO201     -0.0180
     10  C08      -46.2860  -29.3980    2.8740 C.ar  201  WXO201      0.1243
     11  C09      -47.5540  -29.1410    2.3380 C.ar  201  WXO201      0.0563
     12  C21      -42.8220  -32.1830    0.1980 C.3   201  WXO201     -0.0386
     13  C22      -43.2110  -31.6540    1.5640 C.3   201  WXO201      0.0205
     14  N03      -48.3720  -29.4090    7.3630 N.ar  201  WXO201     -0.2745
     15  N10      -48.6150  -29.0200    3.1170 N.ar  201  WXO201     -0.2353
     16  N12      -49.7340  -28.9990    5.2970 N.ar  201  WXO201     -0.2919
     17  N16      -44.6050  -31.2730    1.6120 N.3   201  WXO201     -0.1765
     18  O01      -50.6160  -29.0140    7.4170 O.2   201  WXO201     -0.2466
     19  O05      -46.1520  -29.7770    7.0900 O.2   201  WXO201     -0.2670
     20  O14      -43.6760  -28.9080    2.3200 O.2   201  WXO201     -0.1528
     21  O15      -45.0490  -28.9330    0.4890 O.2   201  WXO201     -0.1528
     22  S13      -44.8550  -29.5900    1.7830 S.O2  201  WXO201      0.0623
     23 H182      -46.3770  -34.1460    1.8420 H     201  WXO201      0.0278
     24 H181      -46.4100  -33.2690    0.3150 H     201  WXO201      0.0278
     25 H172      -45.6800  -32.3170    3.0440 H     201  WXO201      0.0444
     26 H171      -46.6660  -31.5950    1.7660 H     201  WXO201      0.0444
     27 H202      -43.4260  -33.9190   -1.0700 H     201  WXO201      0.0266
     28 H201      -44.5900  -32.6970   -0.7650 H     201  WXO201      0.0266
     29 H192      -43.8460  -34.1000    1.7120 H     201  WXO201      0.0266
     30 H191      -44.6710  -35.0290    0.4600 H     201  WXO201      0.0266
     31 H071      -45.1670  -29.7620    4.6920 H     201  WXO201      0.0646
     32 H091      -47.6640  -29.0400    1.2670 H     201  WXO201      0.0850
     33 H212      -42.9430  -31.4000   -0.4870 H     201  WXO201      0.0278
     34 H211      -41.7510  -32.4110    0.1860 H     201  WXO201      0.0278
     35 H222      -42.6000  -30.7950    1.7310 H     201  WXO201      0.0444
     36 H221      -43.0050  -32.3820    2.3410 H     201  WXO201      0.0444
     37 H031      -48.3100  -29.5040    8.3470 H     201  WXO201      0.1734
     38 H121      -50.6120  -28.8130    4.8630 H     201  WXO201      0.1718
@<TRIPOS>BOND
     1    27     4    1
     2    28     4    1
     3    33    12    1
     4     4    12    1
     5     4     5    1
     6    34    12    1
     7    12    13    1
     8    24     1    1
     9    30     5    1
    10    21    22    2
    11     5     1    1
    12     5    29    1
    13     1    23    1
    14     1     2    1
    15    32    11    1
    16    13    17    1
    17    13    35    1
    18    13    36    1
    19    17    22    1
    20    17     2    1
    21    26     2    1
    22    22    20    2
    23    22    10    1
    24     2    25    1
    25    11    10   ar
    26    11    15   ar
    27    10     9   ar
    28    15     3   ar
    29     9    31    1
    30     9     8   ar
    31     3     8   ar
    32     3    16   ar
    33    38    16    1
    34     8     7   ar
    35    16     6   ar
    36     7    19    2
    37     7    14   ar
    38     6    14   ar
    39     6    18    2
    40    14    37    1
