B6Y
  -OEChem-02242320013D

 87 88  0     1  0  0  0  0  0999 V2000
   -1.0040   -1.4170    0.4790 C   0  0  0  0  0  0  0  0  0  0  0  0
    1.3740   -0.9410    0.7090 C   0  0  1  0  0  0  0  0  0  0  0  0
    2.0270   -2.3110    0.9030 C   0  0  0  0  0  0  0  0  0  0  0  0
    1.0950   -3.2090    1.7200 C   0  0  0  0  0  0  0  0  0  0  0  0
    1.6900   -4.6150    1.8080 C   0  0  0  0  0  0  0  0  0  0  0  0
    0.9370   -2.6320    3.1280 C   0  0  0  0  0  0  0  0  0  0  0  0
    2.3410   -0.0190    0.0120 C   0  0  0  0  0  0  0  0  0  0  0  0
    4.4220    1.2470   -0.0430 C   0  0  1  0  0  0  0  0  0  0  0  0
    4.7470    0.8080   -1.4720 C   0  0  0  0  0  0  0  0  0  0  0  0
    5.4820   -0.5330   -1.4400 C   0  0  1  0  0  0  0  0  0  0  0  0
    5.8070   -0.9930   -2.8440 C   0  0  0  0  0  0  0  0  0  0  0  0
    7.7330   -1.3450   -1.5940 C   0  0  0  0  0  0  0  0  0  0  0  0
    6.8630   -0.3780   -0.7620 C   0  0  0  0  0  0  0  0  0  0  0  0
    3.7350    2.6130   -0.0720 C   0  0  2  0  0  0  0  0  0  0  0  0
   -3.3160   -2.0060    0.4090 C   0  0  0  0  0  0  0  0  0  0  0  0
    0.1650   -1.0870   -0.1050 N   0  0  0  0  0  0  0  0  0  0  0  0
    3.5300    0.2640    0.5780 N   0  0  0  0  0  0  0  0  0  0  0  0
    7.0750   -1.4370   -2.9030 N   0  0  0  0  0  0  0  0  0  0  0  0
   -1.0550   -1.5940    1.6800 O   0  0  0  0  0  0  0  0  0  0  0  0
    5.0370   -0.9650   -3.7800 O   0  0  0  0  0  0  0  0  0  0  0  0
    4.6260    3.5830   -0.6260 O   0  0  0  0  0  0  0  0  0  0  0  0
    2.0480    0.4690   -1.0600 O   0  0  0  0  0  0  0  0  0  0  0  0
   -2.1170   -1.5460   -0.2680 O   0  0  0  0  0  0  0  0  0  0  0  0
    3.2860    3.1000    1.6170 S   0  0  0  0  0  0  0  0  0  0  0  0
    1.1100   -0.5230    1.6810 H   0  0  0  0  0  0  0  0  0  0  0  0
    2.2100   -2.7670   -0.0700 H   0  0  0  0  0  0  0  0  0  0  0  0
    2.9720   -2.1920    1.4320 H   0  0  0  0  0  0  0  0  0  0  0  0
    0.1190   -3.2560    1.2360 H   0  0  0  0  0  0  0  0  0  0  0  0
    2.6650   -4.5680    2.2920 H   0  0  0  0  0  0  0  0  0  0  0  0
    1.0260   -5.2550    2.3900 H   0  0  0  0  0  0  0  0  0  0  0  0
    1.8020   -5.0260    0.8050 H   0  0  0  0  0  0  0  0  0  0  0  0
    0.5130   -1.6300    3.0660 H   0  0  0  0  0  0  0  0  0  0  0  0
    0.2740   -3.2720    3.7110 H   0  0  0  0  0  0  0  0  0  0  0  0
    1.9130   -2.5850    3.6130 H   0  0  0  0  0  0  0  0  0  0  0  0
    5.3440    1.3160    0.5340 H   0  0  0  0  0  0  0  0  0  0  0  0
    3.8220    0.7030   -2.0390 H   0  0  0  0  0  0  0  0  0  0  0  0
    5.3800    1.5580   -1.9470 H   0  0  0  0  0  0  0  0  0  0  0  0
    4.8840   -1.2820   -0.9200 H   0  0  0  0  0  0  0  0  0  0  0  0
    8.7410   -0.9450   -1.7060 H   0  0  0  0  0  0  0  0  0  0  0  0
    7.7680   -2.3260   -1.1200 H   0  0  0  0  0  0  0  0  0  0  0  0
    7.2270    0.6460   -0.8480 H   0  0  0  0  0  0  0  0  0  0  0  0
    6.8220   -0.6900    0.2820 H   0  0  0  0  0  0  0  0  0  0  0  0
    2.8350    2.5540   -0.6840 H   0  0  0  0  0  0  0  0  0  0  0  0
    0.2050   -0.9460   -1.0640 H   0  0  0  0  0  0  0  0  0  0  0  0
    3.7960   -0.1820    1.3980 H   0  0  0  0  0  0  0  0  0  0  0  0
    7.4990   -1.7740   -3.7070 H   0  0  0  0  0  0  0  0  0  0  0  0
    4.9080    3.3860   -1.5300 H   0  0  0  0  0  0  0  0  0  0  0  0
    4.3930    2.9390    2.4930 O   0  0  0  0  0  0  0  0  0  0  0  0
    2.5310    4.3040    1.6050 O   0  0  0  0  0  0  0  0  0  0  0  0
    2.2930    2.0390    2.0670 O   0  0  0  0  0  0  0  0  0  0  0  0
   -3.7240   -0.9840    1.4740 C   0  0  0  0  0  0  0  0  0  0  0  0
   -3.9670    0.3730    0.8070 C   0  0  0  0  0  0  0  0  0  0  0  0
   -4.9490    0.2010   -0.2720 N   0  0  0  0  0  0  0  0  0  0  0  0
   -4.6990   -0.8180   -1.2990 C   0  0  0  0  0  0  0  0  0  0  0  0
   -4.4480   -2.1630   -0.6090 C   0  0  0  0  0  0  0  0  0  0  0  0
   -6.0590    0.9640   -0.3170 C   0  0  0  0  0  0  0  0  0  0  0  0
   -6.2550    1.8040    0.5390 O   0  0  0  0  0  0  0  0  0  0  0  0
   -6.9510    0.7960   -1.3120 O   0  0  0  0  0  0  0  0  0  0  0  0
   -3.0390   -3.3540    1.0760 C   0  0  0  0  0  0  0  0  0  0  0  0
    1.9590    2.1680    2.9650 H   0  0  0  0  0  0  0  0  0  0  0  0
   -4.6380   -1.3170    1.9660 H   0  0  0  0  0  0  0  0  0  0  0  0
   -2.9270   -0.8900    2.2110 H   0  0  0  0  0  0  0  0  0  0  0  0
   -4.3520    1.0780    1.5440 H   0  0  0  0  0  0  0  0  0  0  0  0
   -3.0310    0.7490    0.3930 H   0  0  0  0  0  0  0  0  0  0  0  0
   -5.5680   -0.9000   -1.9530 H   0  0  0  0  0  0  0  0  0  0  0  0
   -3.8230   -0.5390   -1.8850 H   0  0  0  0  0  0  0  0  0  0  0  0
   -4.1660   -2.9070   -1.3540 H   0  0  0  0  0  0  0  0  0  0  0  0
   -5.3550   -2.4840   -0.0980 H   0  0  0  0  0  0  0  0  0  0  0  0
   -8.1230    1.6530   -1.2980 C   0  0  0  0  0  0  0  0  0  0  0  0
   -7.6860    3.1170   -1.3810 C   0  0  0  0  0  0  0  0  0  0  0  0
   -9.0140    1.3180   -2.4960 C   0  0  0  0  0  0  0  0  0  0  0  0
   -8.9050    1.4270   -0.0020 C   0  0  0  0  0  0  0  0  0  0  0  0
   -7.1300    3.2780   -2.3040 H   0  0  0  0  0  0  0  0  0  0  0  0
   -8.5660    3.7600   -1.3710 H   0  0  0  0  0  0  0  0  0  0  0  0
   -7.0520    3.3550   -0.5280 H   0  0  0  0  0  0  0  0  0  0  0  0
   -9.3260    0.2750   -2.4370 H   0  0  0  0  0  0  0  0  0  0  0  0
   -9.8940    1.9610   -2.4850 H   0  0  0  0  0  0  0  0  0  0  0  0
   -8.4580    1.4790   -3.4190 H   0  0  0  0  0  0  0  0  0  0  0  0
   -8.2700    1.6650    0.8510 H   0  0  0  0  0  0  0  0  0  0  0  0
   -9.7850    2.0700    0.0080 H   0  0  0  0  0  0  0  0  0  0  0  0
   -9.2160    0.3840    0.0570 H   0  0  0  0  0  0  0  0  0  0  0  0
   -2.5810   -4.3610    0.0190 C   0  0  0  0  0  0  0  0  0  0  0  0
   -2.2580   -3.2350    1.8270 H   0  0  0  0  0  0  0  0  0  0  0  0
   -3.9500   -3.7170    1.5530 H   0  0  0  0  0  0  0  0  0  0  0  0
   -2.4630   -5.3430    0.4790 H   0  0  0  0  0  0  0  0  0  0  0  0
   -3.3260   -4.4190   -0.7740 H   0  0  0  0  0  0  0  0  0  0  0  0
   -1.6280   -4.0400   -0.4000 H   0  0  0  0  0  0  0  0  0  0  0  0
  4  6  1  0  0  0  0
  4  5  1  0  0  0  0
  3  4  1  0  0  0  0
  2  3  1  0  0  0  0
  2 16  1  0  0  0  0
  1 16  1  0  0  0  0
  1 23  1  0  0  0  0
 15 23  1  0  0  0  0
  2  7  1  0  0  0  0
  1 19  2  0  0  0  0
  7 22  2  0  0  0  0
  7 17  1  0  0  0  0
  8 17  1  0  0  0  0
 14 21  1  0  0  0  0
  8 14  1  0  0  0  0
  8  9  1  0  0  0  0
  9 10  1  0  0  0  0
 10 13  1  0  0  0  0
 10 11  1  0  0  0  0
 12 13  1  0  0  0  0
 12 18  1  0  0  0  0
 11 20  2  0  0  0  0
 11 18  1  0  0  0  0
 14 24  1  0  0  0  0
  2 25  1  0  0  0  0
  3 26  1  0  0  0  0
  3 27  1  0  0  0  0
  4 28  1  0  0  0  0
  5 29  1  0  0  0  0
  5 30  1  0  0  0  0
  5 31  1  0  0  0  0
  6 32  1  0  0  0  0
  6 33  1  0  0  0  0
  6 34  1  0  0  0  0
  8 35  1  0  0  0  0
  9 36  1  0  0  0  0
  9 37  1  0  0  0  0
 10 38  1  0  0  0  0
 12 39  1  0  0  0  0
 12 40  1  0  0  0  0
 13 41  1  0  0  0  0
 13 42  1  0  0  0  0
 14 43  1  0  0  0  0
 16 44  1  0  0  0  0
 17 45  1  0  0  0  0
 18 46  1  0  0  0  0
 21 47  1  0  0  0  0
 24 48  2  0  0  0  0
 24 49  2  0  0  0  0
 24 50  1  0  0  0  0
 15 51  1  0  0  0  0
 51 52  1  0  0  0  0
 52 53  1  0  0  0  0
 53 54  1  0  0  0  0
 54 55  1  0  0  0  0
 15 55  1  0  0  0  0
 53 56  1  0  0  0  0
 56 57  2  0  0  0  0
 56 58  1  0  0  0  0
 15 59  1  0  0  0  0
 50 60  1  0  0  0  0
 51 61  1  0  0  0  0
 51 62  1  0  0  0  0
 52 63  1  0  0  0  0
 52 64  1  0  0  0  0
 54 65  1  0  0  0  0
 54 66  1  0  0  0  0
 55 67  1  0  0  0  0
 55 68  1  0  0  0  0
 58 69  1  0  0  0  0
 69 70  1  0  0  0  0
 69 71  1  0  0  0  0
 69 72  1  0  0  0  0
 70 73  1  0  0  0  0
 70 74  1  0  0  0  0
 70 75  1  0  0  0  0
 71 76  1  0  0  0  0
 71 77  1  0  0  0  0
 71 78  1  0  0  0  0
 72 79  1  0  0  0  0
 72 80  1  0  0  0  0
 72 81  1  0  0  0  0
 59 82  1  0  0  0  0
 59 83  1  0  0  0  0
 59 84  1  0  0  0  0
 82 85  1  0  0  0  0
 82 86  1  0  0  0  0
 82 87  1  0  0  0  0
M  END
> <OPENEYE_ISO_SMILES>
CCC1(CCN(CC1)C(=O)OC(C)(C)C)OC(=O)N[C@@H](CC(C)C)C(=O)N[C@@H](C[C@@H]2CCNC2=O)[C@H](O)S(=O)(=O)O

> <OPENEYE_INCHI>
InChI=1S/C26H46N4O10S/c1-7-26(9-12-30(13-10-26)24(35)40-25(4,5)6)39-23(34)29-18(14-16(2)3)21(32)28-19(22(33)41(36,37)38)15-17-8-11-27-20(17)31/h16-19,22,33H,7-15H2,1-6H3,(H,27,31)(H,28,32)(H,29,34)(H,36,37,38)/t17-,18-,19-,22+/m0/s1

> <OPENEYE_INCHIKEY>
XQPCHNVZRFSEQT-ZVVDCOBXSA-N

> <FORMULA>
C26H46N4O10S

$$$$
