N02
  -OEChem-02242320033D

 87 88  0     1  0  0  0  0  0999 V2000
   -1.3730   -1.3320    0.3170 C   0  0  0  0  0  0  0  0  0  0  0  0
    1.0330   -0.9490    0.2850 C   0  0  1  0  0  0  0  0  0  0  0  0
    1.6490   -2.3310    0.5130 C   0  0  0  0  0  0  0  0  0  0  0  0
    0.7680   -3.1300    1.4760 C   0  0  0  0  0  0  0  0  0  0  0  0
    1.3150   -4.5530    1.6070 C   0  0  0  0  0  0  0  0  0  0  0  0
    0.7710   -2.4540    2.8490 C   0  0  0  0  0  0  0  0  0  0  0  0
    1.9620   -0.1200   -0.5640 C   0  0  0  0  0  0  0  0  0  0  0  0
    4.1130    0.9530   -0.9610 C   0  0  1  0  0  0  0  0  0  0  0  0
    5.1700    1.6090   -0.0700 C   0  0  0  0  0  0  0  0  0  0  0  0
    4.4970    2.6230    0.8580 C   0  0  1  0  0  0  0  0  0  0  0  0
    5.5240    3.2910    1.7460 C   0  0  0  0  0  0  0  0  0  0  0  0
    4.1480    4.9930    0.9680 C   0  0  0  0  0  0  0  0  0  0  0  0
    3.8890    3.7860    0.0400 C   0  0  0  0  0  0  0  0  0  0  0  0
    4.8000    0.0550   -1.9910 C   0  0  1  0  0  0  0  0  0  0  0  0
   -3.6990   -1.8300    0.5070 C   0  0  0  0  0  0  0  0  0  0  0  0
   -0.2550   -1.0950   -0.3970 N   0  0  0  0  0  0  0  0  0  0  0  0
    3.2110    0.1470   -0.1350 N   0  0  0  0  0  0  0  0  0  0  0  0
    5.3090    4.6170    1.7850 N   0  0  0  0  0  0  0  0  0  0  0  0
   -1.3120   -1.4260    1.5270 O   0  0  0  0  0  0  0  0  0  0  0  0
    6.4120    2.7130    2.3370 O   0  0  0  0  0  0  0  0  0  0  0  0
    5.7650    0.8180   -2.7190 O   0  0  0  0  0  0  0  0  0  0  0  0
    1.5840    0.3080   -1.6350 O   0  0  0  0  0  0  0  0  0  0  0  0
   -2.5570   -1.4610   -0.3100 O   0  0  0  0  0  0  0  0  0  0  0  0
    0.8820   -0.4560    1.2460 H   0  0  0  0  0  0  0  0  0  0  0  0
    1.7180   -2.8590   -0.4380 H   0  0  0  0  0  0  0  0  0  0  0  0
    2.6460   -2.2190    0.9400 H   0  0  0  0  0  0  0  0  0  0  0  0
   -0.2510   -3.1660    1.0910 H   0  0  0  0  0  0  0  0  0  0  0  0
    2.3340   -4.5170    1.9910 H   0  0  0  0  0  0  0  0  0  0  0  0
    0.6870   -5.1210    2.2930 H   0  0  0  0  0  0  0  0  0  0  0  0
    1.3120   -5.0340    0.6280 H   0  0  0  0  0  0  0  0  0  0  0  0
    1.7910   -2.4180    3.2340 H   0  0  0  0  0  0  0  0  0  0  0  0
    0.3820   -1.4400    2.7560 H   0  0  0  0  0  0  0  0  0  0  0  0
    0.1440   -3.0230    3.5350 H   0  0  0  0  0  0  0  0  0  0  0  0
    3.5410    1.7260   -1.4750 H   0  0  0  0  0  0  0  0  0  0  0  0
    5.6680    0.8450    0.5260 H   0  0  0  0  0  0  0  0  0  0  0  0
    5.9040    2.1190   -0.6930 H   0  0  0  0  0  0  0  0  0  0  0  0
    3.7290    2.1360    1.4590 H   0  0  0  0  0  0  0  0  0  0  0  0
    4.3750    5.8810    0.3780 H   0  0  0  0  0  0  0  0  0  0  0  0
    3.2820    5.1740    1.6050 H   0  0  0  0  0  0  0  0  0  0  0  0
    4.4080    3.9060   -0.9110 H   0  0  0  0  0  0  0  0  0  0  0  0
    2.8210    3.6360   -0.1160 H   0  0  0  0  0  0  0  0  0  0  0  0
    4.0560   -0.3420   -2.6810 H   0  0  0  0  0  0  0  0  0  0  0  0
   -0.3030   -1.0200   -1.3630 H   0  0  0  0  0  0  0  0  0  0  0  0
    3.5130   -0.1950    0.7210 H   0  0  0  0  0  0  0  0  0  0  0  0
    5.8500    5.2450    2.2880 H   0  0  0  0  0  0  0  0  0  0  0  0
    6.4600    1.2030   -2.1680 H   0  0  0  0  0  0  0  0  0  0  0  0
    5.6300   -1.3160   -1.1410 S   0  0  0  0  0  0  0  0  0  0  0  0
    6.6590   -0.8270   -0.2930 O   0  0  0  0  0  0  0  0  0  0  0  0
    4.6770   -2.2590   -0.6690 O   0  0  0  0  0  0  0  0  0  0  0  0
    6.3720   -2.0540   -2.2460 O   0  0  0  0  0  0  0  0  0  0  0  0
    6.8700   -2.8240   -1.9380 H   0  0  0  0  0  0  0  0  0  0  0  0
   -3.9460   -0.7460    1.5590 C   0  0  0  0  0  0  0  0  0  0  0  0
   -4.1940    0.5930    0.8570 C   0  0  0  0  0  0  0  0  0  0  0  0
   -5.2910    0.4260   -0.1060 N   0  0  0  0  0  0  0  0  0  0  0  0
   -5.1960   -0.6470   -1.1050 C   0  0  0  0  0  0  0  0  0  0  0  0
   -4.9370   -1.9730   -0.3810 C   0  0  0  0  0  0  0  0  0  0  0  0
   -3.4170   -3.1620    1.2050 C   0  0  0  0  0  0  0  0  0  0  0  0
   -4.8180   -1.0110    2.1570 H   0  0  0  0  0  0  0  0  0  0  0  0
   -3.0720   -0.6610    2.2060 H   0  0  0  0  0  0  0  0  0  0  0  0
   -4.4670    1.3470    1.5950 H   0  0  0  0  0  0  0  0  0  0  0  0
   -3.2900    0.9030    0.3320 H   0  0  0  0  0  0  0  0  0  0  0  0
   -6.3630    1.2420   -0.0740 C   0  0  0  0  0  0  0  0  0  0  0  0
   -6.1310   -0.7120   -1.6610 H   0  0  0  0  0  0  0  0  0  0  0  0
   -4.3750   -0.4380   -1.7900 H   0  0  0  0  0  0  0  0  0  0  0  0
   -4.7690   -2.7610   -1.1150 H   0  0  0  0  0  0  0  0  0  0  0  0
   -5.8000   -2.2260    0.2350 H   0  0  0  0  0  0  0  0  0  0  0  0
   -3.1190   -4.2350    0.1550 C   0  0  0  0  0  0  0  0  0  0  0  0
   -6.4290    2.1260    0.7570 O   0  0  0  0  0  0  0  0  0  0  0  0
   -7.3610    1.0770   -0.9630 O   0  0  0  0  0  0  0  0  0  0  0  0
   -8.4840    1.9920   -0.8690 C   0  0  0  0  0  0  0  0  0  0  0  0
   -7.9910    3.4270   -1.0650 C   0  0  0  0  0  0  0  0  0  0  0  0
   -9.5100    1.6530   -1.9520 C   0  0  0  0  0  0  0  0  0  0  0  0
   -9.1360    1.8610    0.5090 C   0  0  0  0  0  0  0  0  0  0  0  0
   -2.5560   -3.0510    1.8650 H   0  0  0  0  0  0  0  0  0  0  0  0
   -4.2870   -3.4580    1.7900 H   0  0  0  0  0  0  0  0  0  0  0  0
   -2.9650   -5.1940    0.6490 H   0  0  0  0  0  0  0  0  0  0  0  0
   -3.9600   -4.3120   -0.5340 H   0  0  0  0  0  0  0  0  0  0  0  0
   -2.2200   -3.9630   -0.3980 H   0  0  0  0  0  0  0  0  0  0  0  0
   -7.5270    3.5210   -2.0470 H   0  0  0  0  0  0  0  0  0  0  0  0
   -8.8350    4.1140   -0.9950 H   0  0  0  0  0  0  0  0  0  0  0  0
   -7.2600    3.6690   -0.2940 H   0  0  0  0  0  0  0  0  0  0  0  0
   -9.8610    0.6310   -1.8120 H   0  0  0  0  0  0  0  0  0  0  0  0
  -10.3540    2.3400   -1.8820 H   0  0  0  0  0  0  0  0  0  0  0  0
   -9.0460    1.7470   -2.9340 H   0  0  0  0  0  0  0  0  0  0  0  0
   -8.4050    2.1030    1.2810 H   0  0  0  0  0  0  0  0  0  0  0  0
   -9.9790    2.5480    0.5790 H   0  0  0  0  0  0  0  0  0  0  0  0
   -9.4870    0.8390    0.6490 H   0  0  0  0  0  0  0  0  0  0  0  0
  4  6  1  0  0  0  0
  4  5  1  0  0  0  0
  3  4  1  0  0  0  0
  2  3  1  0  0  0  0
  2 16  1  0  0  0  0
  1 16  1  0  0  0  0
  1 23  1  0  0  0  0
 15 23  1  0  0  0  0
  2  7  1  0  0  0  0
  1 19  2  0  0  0  0
  7 22  2  0  0  0  0
  7 17  1  0  0  0  0
  8 17  1  0  0  0  0
  8 14  1  0  0  0  0
  8  9  1  0  0  0  0
 14 21  1  0  0  0  0
  9 10  1  0  0  0  0
 10 13  1  0  0  0  0
 10 11  1  0  0  0  0
 12 13  1  0  0  0  0
 11 20  2  0  0  0  0
 11 18  1  0  0  0  0
 12 18  1  0  0  0  0
  2 24  1  0  0  0  0
  3 25  1  0  0  0  0
  3 26  1  0  0  0  0
  4 27  1  0  0  0  0
  5 28  1  0  0  0  0
  5 29  1  0  0  0  0
  5 30  1  0  0  0  0
  6 31  1  0  0  0  0
  6 32  1  0  0  0  0
  6 33  1  0  0  0  0
  8 34  1  0  0  0  0
  9 35  1  0  0  0  0
  9 36  1  0  0  0  0
 10 37  1  0  0  0  0
 12 38  1  0  0  0  0
 12 39  1  0  0  0  0
 13 40  1  0  0  0  0
 13 41  1  0  0  0  0
 14 42  1  0  0  0  0
 16 43  1  0  0  0  0
 17 44  1  0  0  0  0
 18 45  1  0  0  0  0
 21 46  1  0  0  0  0
 14 47  1  0  0  0  0
 47 48  2  0  0  0  0
 47 49  2  0  0  0  0
 47 50  1  0  0  0  0
 50 51  1  0  0  0  0
 15 52  1  0  0  0  0
 52 53  1  0  0  0  0
 53 54  1  0  0  0  0
 54 55  1  0  0  0  0
 55 56  1  0  0  0  0
 15 56  1  0  0  0  0
 15 57  1  0  0  0  0
 52 58  1  0  0  0  0
 52 59  1  0  0  0  0
 53 60  1  0  0  0  0
 53 61  1  0  0  0  0
 54 62  1  0  0  0  0
 55 63  1  0  0  0  0
 55 64  1  0  0  0  0
 56 65  1  0  0  0  0
 56 66  1  0  0  0  0
 57 67  1  0  0  0  0
 62 68  2  0  0  0  0
 62 69  1  0  0  0  0
 69 70  1  0  0  0  0
 70 71  1  0  0  0  0
 70 72  1  0  0  0  0
 70 73  1  0  0  0  0
 57 74  1  0  0  0  0
 57 75  1  0  0  0  0
 67 76  1  0  0  0  0
 67 77  1  0  0  0  0
 67 78  1  0  0  0  0
 71 79  1  0  0  0  0
 71 80  1  0  0  0  0
 71 81  1  0  0  0  0
 72 82  1  0  0  0  0
 72 83  1  0  0  0  0
 72 84  1  0  0  0  0
 73 85  1  0  0  0  0
 73 86  1  0  0  0  0
 73 87  1  0  0  0  0
M  END
> <OPENEYE_ISO_SMILES>
CCC1(CCN(CC1)C(=O)OC(C)(C)C)OC(=O)N[C@@H](CC(C)C)C(=O)N[C@@H](C[C@@H]2CCNC2=O)[C@@H](O)S(=O)(=O)O

> <OPENEYE_INCHI>
InChI=1S/C26H46N4O10S/c1-7-26(9-12-30(13-10-26)24(35)40-25(4,5)6)39-23(34)29-18(14-16(2)3)21(32)28-19(22(33)41(36,37)38)15-17-8-11-27-20(17)31/h16-19,22,33H,7-15H2,1-6H3,(H,27,31)(H,28,32)(H,29,34)(H,36,37,38)/t17-,18-,19-,22-/m0/s1

> <OPENEYE_INCHIKEY>
XQPCHNVZRFSEQT-OZIGNCPNSA-N

> <FORMULA>
C26H46N4O10S

$$$$
