V64
  -OEChem-02242320043D

 90 92  0     1  0  0  0  0  0999 V2000
    4.5220    0.3150   -0.6440 O   0  0  0  0  0  0  0  0  0  0  0  0
    3.8110   -0.2080    0.1910 C   0  0  0  0  0  0  0  0  0  0  0  0
    4.1960   -0.2350    1.4810 O   0  0  0  0  0  0  0  0  0  0  0  0
    5.4730    0.3780    1.8010 C   0  0  0  0  0  0  0  0  0  0  0  0
    5.7380    0.2500    3.3020 C   0  0  0  0  0  0  0  0  0  0  0  0
    6.5870   -0.3270    1.0240 C   0  0  0  0  0  0  0  0  0  0  0  0
    5.4380    1.8580    1.4140 C   0  0  0  0  0  0  0  0  0  0  0  0
    0.8730    0.7150   -2.8770 O   0  0  0  0  0  0  0  0  0  0  0  0
    1.5320    0.5850   -1.8680 C   0  0  0  0  0  0  0  0  0  0  0  0
   -3.4650   -0.4630    2.8450 N   0  0  0  0  0  0  0  0  0  0  0  0
    2.2160   -0.7250   -1.5770 C   0  0  2  0  0  0  0  0  0  0  0  0
    1.2460   -1.8780   -1.8440 C   0  0  0  0  0  0  0  0  0  0  0  0
    1.8340   -3.1810   -1.3020 C   0  0  0  0  0  0  0  0  0  0  0  0
    2.6350   -0.7550   -0.1730 N   0  0  0  0  0  0  0  0  0  0  0  0
    0.4680   -5.2670   -1.0280 N   0  0  0  0  0  0  0  0  0  0  0  0
   -0.5360   -5.6740   -0.3330 N   0  0  0  0  0  0  0  0  0  0  0  0
   -0.9420   -4.7120    0.4460 C   0  0  0  0  0  0  0  0  0  0  0  0
   -0.1480   -3.6520    0.2240 O   0  0  0  0  0  0  0  0  0  0  0  0
    0.7340   -4.0290   -0.7170 C   0  0  0  0  0  0  0  0  0  0  0  0
   -2.0930   -4.7750    1.4170 C   0  0  0  0  0  0  0  0  0  0  0  0
   -2.9140   -3.4880    1.3180 C   0  0  0  0  0  0  0  0  0  0  0  0
   -3.0730   -2.8750    2.7110 C   0  0  0  0  0  0  0  0  0  0  0  0
   -4.1300   -1.7700    2.6640 C   0  0  0  0  0  0  0  0  0  0  0  0
   -1.3060    3.6770   -0.3310 N   0  0  0  0  0  0  0  0  0  0  0  0
   -2.2070    3.7670    0.8430 C   0  0  1  0  0  0  0  0  0  0  0  0
   -3.1790    2.5870    0.8030 C   0  0  0  0  0  0  0  0  0  0  0  0
   -3.2540    1.9410    2.1890 C   0  0  0  0  0  0  0  0  0  0  0  0
   -3.9200    0.5940    2.0790 C   0  0  0  0  0  0  0  0  0  0  0  0
   -4.8490    0.4430    1.3140 O   0  0  0  0  0  0  0  0  0  0  0  0
   -1.3810    3.7100    2.1290 C   0  0  0  0  0  0  0  0  0  0  0  0
   -0.2710    4.6040    2.0230 O   0  0  0  0  0  0  0  0  0  0  0  0
    1.6620    1.6230   -0.9980 N   0  0  0  0  0  0  0  0  0  0  0  0
    0.8150    2.8060   -1.2650 C   0  0  2  0  0  0  0  0  0  0  0  0
   -0.1610    2.9590   -0.1270 C   0  0  0  0  0  0  0  0  0  0  0  0
    0.0660    2.4540    0.9520 O   0  0  0  0  0  0  0  0  0  0  0  0
    0.0520    2.6090   -2.5770 C   0  0  0  0  0  0  0  0  0  0  0  0
   -0.9160    1.4330   -2.4310 C   0  0  0  0  0  0  0  0  0  0  0  0
   -1.1140    0.7640   -3.7930 C   0  0  0  0  0  0  0  0  0  0  0  0
   -2.0820   -0.4120   -3.6470 C   0  0  0  0  0  0  0  0  0  0  0  0
   -3.4280    0.0970   -3.1280 C   0  0  0  0  0  0  0  0  0  0  0  0
   -3.2300    0.7660   -1.7670 C   0  0  0  0  0  0  0  0  0  0  0  0
   -2.2620    1.9410   -1.9120 C   0  0  0  0  0  0  0  0  0  0  0  0
    5.7620   -0.8040    3.5780 H   0  0  0  0  0  0  0  0  0  0  0  0
    6.6960    0.7110    3.5430 H   0  0  0  0  0  0  0  0  0  0  0  0
    4.9440    0.7520    3.8560 H   0  0  0  0  0  0  0  0  0  0  0  0
    6.3980   -0.2350   -0.0450 H   0  0  0  0  0  0  0  0  0  0  0  0
    7.5450    0.1340    1.2650 H   0  0  0  0  0  0  0  0  0  0  0  0
    6.6110   -1.3810    1.3000 H   0  0  0  0  0  0  0  0  0  0  0  0
    4.6450    2.3600    1.9670 H   0  0  0  0  0  0  0  0  0  0  0  0
    6.3970    2.3190    1.6540 H   0  0  0  0  0  0  0  0  0  0  0  0
    5.2490    1.9490    0.3440 H   0  0  0  0  0  0  0  0  0  0  0  0
   -2.7360   -0.3590    3.4760 H   0  0  0  0  0  0  0  0  0  0  0  0
   -4.8550   -1.9240    3.4630 H   0  0  0  0  0  0  0  0  0  0  0  0
   -4.6380   -1.7900    1.6990 H   0  0  0  0  0  0  0  0  0  0  0  0
    3.0900   -0.8290   -2.2190 H   0  0  0  0  0  0  0  0  0  0  0  0
    0.2960   -1.6760   -1.3500 H   0  0  0  0  0  0  0  0  0  0  0  0
    1.0830   -1.9730   -2.9180 H   0  0  0  0  0  0  0  0  0  0  0  0
    2.3190   -3.7260   -2.1130 H   0  0  0  0  0  0  0  0  0  0  0  0
    2.5670   -2.9550   -0.5280 H   0  0  0  0  0  0  0  0  0  0  0  0
    2.0650   -1.1690    0.4940 H   0  0  0  0  0  0  0  0  0  0  0  0
   -2.7260   -5.6290    1.1760 H   0  0  0  0  0  0  0  0  0  0  0  0
   -1.7070   -4.8830    2.4310 H   0  0  0  0  0  0  0  0  0  0  0  0
   -2.4020   -2.7800    0.6660 H   0  0  0  0  0  0  0  0  0  0  0  0
   -3.8970   -3.7160    0.9070 H   0  0  0  0  0  0  0  0  0  0  0  0
   -3.3860   -3.6470    3.4140 H   0  0  0  0  0  0  0  0  0  0  0  0
   -2.1210   -2.4540    3.0330 H   0  0  0  0  0  0  0  0  0  0  0  0
   -1.5150    4.0950   -1.1810 H   0  0  0  0  0  0  0  0  0  0  0  0
   -2.7650    4.7030    0.8040 H   0  0  0  0  0  0  0  0  0  0  0  0
   -4.1680    2.9410    0.5130 H   0  0  0  0  0  0  0  0  0  0  0  0
   -2.8290    1.8520    0.0780 H   0  0  0  0  0  0  0  0  0  0  0  0
   -2.2470    1.8170    2.5870 H   0  0  0  0  0  0  0  0  0  0  0  0
   -3.8330    2.5790    2.8560 H   0  0  0  0  0  0  0  0  0  0  0  0
   -2.0040    4.0030    2.9740 H   0  0  0  0  0  0  0  0  0  0  0  0
   -1.0160    2.6940    2.2820 H   0  0  0  0  0  0  0  0  0  0  0  0
    0.2970    4.6200    2.8050 H   0  0  0  0  0  0  0  0  0  0  0  0
    2.2740    1.5890   -0.2470 H   0  0  0  0  0  0  0  0  0  0  0  0
    1.4400    3.6970   -1.3350 H   0  0  0  0  0  0  0  0  0  0  0  0
   -0.5090    3.5140   -2.8110 H   0  0  0  0  0  0  0  0  0  0  0  0
    0.7580    2.4010   -3.3800 H   0  0  0  0  0  0  0  0  0  0  0  0
   -0.5050    0.7090   -1.7270 H   0  0  0  0  0  0  0  0  0  0  0  0
   -1.5250    1.4880   -4.4970 H   0  0  0  0  0  0  0  0  0  0  0  0
   -0.1550    0.4010   -4.1630 H   0  0  0  0  0  0  0  0  0  0  0  0
   -2.2230   -0.8890   -4.6170 H   0  0  0  0  0  0  0  0  0  0  0  0
   -1.6710   -1.1360   -2.9430 H   0  0  0  0  0  0  0  0  0  0  0  0
   -3.8390    0.8200   -3.8320 H   0  0  0  0  0  0  0  0  0  0  0  0
   -4.1180   -0.7410   -3.0250 H   0  0  0  0  0  0  0  0  0  0  0  0
   -4.1890    1.1280   -1.3970 H   0  0  0  0  0  0  0  0  0  0  0  0
   -2.8190    0.0420   -1.0630 H   0  0  0  0  0  0  0  0  0  0  0  0
   -2.1210    2.4180   -0.9420 H   0  0  0  0  0  0  0  0  0  0  0  0
   -2.6730    2.6650   -2.6160 H   0  0  0  0  0  0  0  0  0  0  0  0
 30 31  1  0  0  0  0
 25 30  1  0  0  0  0
 25 26  1  0  0  0  0
 24 25  1  0  0  0  0
 26 27  1  0  0  0  0
 10 23  1  0  0  0  0
 28 29  2  0  0  0  0
 10 28  1  0  0  0  0
 27 28  1  0  0  0  0
 24 34  1  0  0  0  0
 34 35  2  0  0  0  0
 33 34  1  0  0  0  0
 33 36  1  0  0  0  0
 36 37  1  0  0  0  0
 32 33  1  0  0  0  0
 37 42  1  0  0  0  0
 41 42  1  0  0  0  0
 37 38  1  0  0  0  0
  8  9  2  0  0  0  0
  9 32  1  0  0  0  0
 40 41  1  0  0  0  0
  9 11  1  0  0  0  0
 38 39  1  0  0  0  0
 39 40  1  0  0  0  0
 11 12  1  0  0  0  0
 12 13  1  0  0  0  0
 11 14  1  0  0  0  0
  2 14  1  0  0  0  0
  2  3  1  0  0  0  0
  1  2  2  0  0  0  0
  3  4  1  0  0  0  0
  4  7  1  0  0  0  0
  4  6  1  0  0  0  0
  4  5  1  0  0  0  0
 32 76  1  0  0  0  0
 33 77  1  0  0  0  0
 36 78  1  0  0  0  0
 36 79  1  0  0  0  0
 37 80  1  0  0  0  0
 38 82  1  0  0  0  0
 38 81  1  0  0  0  0
 39 84  1  0  0  0  0
 39 83  1  0  0  0  0
 40 86  1  0  0  0  0
 40 85  1  0  0  0  0
 41 88  1  0  0  0  0
 41 87  1  0  0  0  0
 42 89  1  0  0  0  0
 42 90  1  0  0  0  0
 24 67  1  0  0  0  0
 25 68  1  0  0  0  0
 26 69  1  0  0  0  0
 26 70  1  0  0  0  0
 27 71  1  0  0  0  0
 27 72  1  0  0  0  0
 10 52  1  0  0  0  0
 23 53  1  0  0  0  0
 23 54  1  0  0  0  0
 30 73  1  0  0  0  0
 30 74  1  0  0  0  0
 31 75  1  0  0  0  0
 11 55  1  0  0  0  0
 12 56  1  0  0  0  0
 12 57  1  0  0  0  0
 13 58  1  0  0  0  0
 13 59  1  0  0  0  0
 14 60  1  0  0  0  0
  5 43  1  0  0  0  0
  5 44  1  0  0  0  0
  5 45  1  0  0  0  0
  6 46  1  0  0  0  0
  6 47  1  0  0  0  0
  6 48  1  0  0  0  0
  7 49  1  0  0  0  0
  7 50  1  0  0  0  0
  7 51  1  0  0  0  0
 13 19  1  0  0  0  0
 15 19  2  0  0  0  0
 15 16  1  0  0  0  0
 16 17  2  0  0  0  0
 17 18  1  0  0  0  0
 18 19  1  0  0  0  0
 17 20  1  0  0  0  0
 20 21  1  0  0  0  0
 21 22  1  0  0  0  0
 22 23  1  0  0  0  0
 20 61  1  0  0  0  0
 20 62  1  0  0  0  0
 21 63  1  0  0  0  0
 21 64  1  0  0  0  0
 22 65  1  0  0  0  0
 22 66  1  0  0  0  0
M  END
> <OPENEYE_ISO_SMILES>
CC(C)(C)OC(=O)N[C@H]1CCc2nnc(o2)CCCCNC(=O)CC[C@H](NC(=O)[C@@H](NC1=O)CC3CCCCC3)CO

> <OPENEYE_INCHI>
InChI=1S/C29H48N6O7/c1-29(2,3)42-28(40)33-21-13-15-25-35-34-24(41-25)11-7-8-16-30-23(37)14-12-20(18-36)31-27(39)22(32-26(21)38)17-19-9-5-4-6-10-19/h19-22,36H,4-18H2,1-3H3,(H,30,37)(H,31,39)(H,32,38)(H,33,40)/t20-,21-,22-/m0/s1

> <OPENEYE_INCHIKEY>
GGHACTZVDKMERX-FKBYEOEOSA-N

> <FORMULA>
C29H48N6O7

$$$$
