@<TRIPOS>MOLECULE
/home/pku/3cl/gett_pdb/5SRG/5SRG_mol2/ligand/5SRG_R98.pdb
 37 40 0 0 0
SMALL
GASTEIGER

@<TRIPOS>ATOM
      1  C18      -50.6560  -28.9980    4.7930 C.ar  201  R98201      0.1254
      2  C16      -48.4350  -29.0880    5.7490 C.ar  201  R98201      0.0510
      3  C17      -49.8340  -29.0170    5.9060 C.ar  201  R98201     -0.0025
      4  C14      -46.2670  -29.1940    6.1200 C.ar  201  R98201      0.1296
      5  C12      -43.9700  -29.3150    5.9160 C.2   201  R98201      0.1048
      6  C10      -45.2300  -29.2830    3.9700 C.3   201  R98201      0.1881
      7  C20      -50.0930  -29.0460    3.5190 C.ar  201  R98201     -0.0258
      8  C01      -44.0720  -28.7830    1.8000 C.3   201  R98201     -0.0098
      9  C03      -46.1590  -30.2100    1.8800 C.3   201  R98201      0.0435
     10  C04      -45.5780  -31.3450    1.0510 C.ar  201  R98201      0.0553
     11  C05      -46.1090  -31.5630   -0.2100 C.ar  201  R98201     -0.0391
     12  C06      -45.6020  -32.5970   -0.9840 C.ar  201  R98201     -0.0586
     13  C07      -44.5880  -33.3850   -0.4490 C.ar  201  R98201     -0.0436
     14  C08      -44.1230  -33.1060    0.8270 C.ar  201  R98201      0.0279
     15  C21      -48.7110  -29.1220    3.3570 C.ar  201  R98201     -0.0494
     16  C22      -47.8660  -29.1450    4.4940 C.ar  201  R98201      0.0087
     17  C23      -46.4210  -29.2150    4.7540 C.ar  201  R98201      0.0474
     18  F19      -52.0090  -28.9270    4.9350 F     201  R98201     -0.2054
     19  N02      -45.1710  -29.3740    2.5350 N.3   201  R98201     -0.2688
     20  N09      -44.6200  -32.1120    1.5360 N.ar  201  R98201     -0.2586
     21  N11      -44.0740  -29.3310    4.6050 N.2   201  R98201     -0.2431
     22  N13      -45.0370  -29.2450    6.6690 N.pl3 201  R98201     -0.1859
     23  N15      -47.4770  -29.1240    6.7020 N.ar  201  R98201     -0.3411
     24 H171      -50.2460  -28.9790    6.9010 H     201  R98201      0.0667
     25 H121      -42.9960  -29.3390    6.3650 H     201  R98201      0.1015
     26 H201      -50.7310  -29.0410    2.6500 H     201  R98201      0.0646
     27 H013      -44.2880  -28.8090    0.7390 H     201  R98201      0.0392
     28 H012      -43.1710  -29.3630    2.0000 H     201  R98201      0.0392
     29 H011      -43.9220  -27.7620    2.1220 H     201  R98201      0.0392
     30 H031      -46.8010  -30.6710    2.6280 H     201  R98201      0.0492
     31 H032      -46.7400  -29.5920    1.2290 H     201  R98201      0.0492
     32 H051      -46.9000  -30.9120   -0.5880 H     201  R98201      0.0636
     33 H061      -45.9890  -32.7800   -1.9770 H     201  R98201      0.0619
     34 H071      -44.1690  -34.2040   -1.0200 H     201  R98201      0.0633
     35 H081      -43.3370  -33.7170    1.2550 H     201  R98201      0.0829
     36 H211      -48.2910  -29.1620    2.3550 H     201  R98201      0.0625
     37 H151      -47.6210  -29.0900    7.6920 H     201  R98201      0.1671
@<TRIPOS>BOND
     1    33    12    1
     2    34    13    1
     3    12    13   ar
     4    12    11   ar
     5    32    11    1
     6    13    14   ar
     7    11    10   ar
     8    27     8    1
     9    14    35    1
    10    14    20   ar
    11    10    20   ar
    12    10     9    1
    13    31     9    1
    14     8    28    1
    15     8    29    1
    16     8    19    1
    17     9    19    1
    18     9    30    1
    19    36    15    1
    20    19     6    1
    21    26     7    1
    22    15     7   ar
    23    15    16   ar
    24     7     1   ar
    25     6    21    1
    26     6    17    1
    27    16    17   ar
    28    16     2   ar
    29    21     5    2
    30    17     4   ar
    31     1    18    1
    32     1     3   ar
    33     2     3   ar
    34     2    23   ar
    35     3    24    1
    36     5    25    1
    37     5    22    1
    38     4    22    1
    39     4    23   ar
    40    23    37    1
