@<TRIPOS>MOLECULE
/home/pku/3cl/gett_pdb/5SQF/5SQF_mol2/ligand/5SQF_QQ9.pdb
 34 36 0 0 0
SMALL
GASTEIGER

@<TRIPOS>ATOM
      1  C16      -44.5170  -29.8420    7.0080 C.ar  201  QQ9201      0.0306
      2  C17      -44.0210  -29.8060    5.7170 C.ar  201  QQ9201     -0.0308
      3  C14      -46.6030  -29.1160    6.3180 C.ar  201  QQ9201      0.1388
      4  C12      -48.3480  -28.4310    5.2160 C.ar  201  QQ9201      0.0041
      5  C11      -47.3250  -28.6020    4.2920 C.ar  201  QQ9201     -0.0344
      6  C10      -46.1990  -29.0410    5.0120 C.ar  201  QQ9201      0.0307
      7  C19      -46.1380  -31.0460    2.3640 C.3   201  QQ9201      0.0236
      8  C02      -44.7260  -33.0950    2.7660 C.2   201  QQ9201      0.0917
      9  C03      -45.7800  -32.4350    1.8060 C.3   201  QQ9201      0.0236
     10  C04      -45.2000  -32.3920    0.4570 C.3   201  QQ9201     -0.0415
     11  C05      -44.0890  -31.4330    0.3350 C.3   201  QQ9201     -0.0365
     12  C06      -44.5390  -30.0430    0.7820 C.3   201  QQ9201      0.0150
     13  C08      -44.3780  -29.3230    3.2640 C.2   201  QQ9201      0.2474
     14  C09      -44.8770  -29.3990    4.6980 C.ar  201  QQ9201      0.0490
     15  N07      -44.9940  -30.0890    2.2090 N.am  201  QQ9201     -0.2969
     16  N13      -47.8840  -28.7390    6.4080 N.ar  201  QQ9201     -0.3458
     17  N15      -45.7650  -29.5170    7.2700 N.ar  201  QQ9201     -0.2375
     18  O01      -44.6710  -34.3470    2.8800 O.co2 201  QQ9201     -0.8474
     19  O18      -43.4760  -28.6050    3.0000 O.2   201  QQ9201     -0.2700
     20  O20      -43.9340  -32.3640    3.4220 O.co2 201  QQ9201     -0.3087
     21 H161      -43.8650  -30.1540    7.8190 H     201  QQ9201      0.0830
     22 H171      -42.9970  -30.0820    5.5150 H     201  QQ9201      0.0640
     23 H121      -49.3490  -28.0950    4.9940 H     201  QQ9201      0.0807
     24 H111      -47.3800  -28.4330    3.2270 H     201  QQ9201      0.0639
     25 H192      -46.9950  -30.6520    1.8300 H     201  QQ9201      0.0471
     26 H191      -46.3930  -31.1510    3.4160 H     201  QQ9201      0.0471
     27 H031      -46.6800  -33.0300    1.7770 H     201  QQ9201      0.0384
     28 H041      -45.9730  -32.1100   -0.2470 H     201  QQ9201      0.0273
     29 H042      -44.8320  -33.3760    0.2000 H     201  QQ9201      0.0273
     30 H051      -43.7710  -31.3850   -0.6980 H     201  QQ9201      0.0281
     31 H052      -43.2580  -31.7540    0.9580 H     201  QQ9201      0.0281
     32 H062      -45.3570  -29.7080    0.1540 H     201  QQ9201      0.0465
     33 H061      -43.7060  -29.3550    0.6940 H     201  QQ9201      0.0465
     34 H131      -48.4120  -28.7040    7.2570 H     201  QQ9201      0.1668
@<TRIPOS>UNITY_ATOM_ATTR
18 1
charge -1
@<TRIPOS>BOND
     1    30    11    1
     2    28    10    1
     3    32    12    1
     4    29    10    1
     5    11    10    1
     6    11    12    1
     7    11    31    1
     8    10     9    1
     9    33    12    1
    10    12    15    1
    11    27     9    1
    12     9     7    1
    13     9     8    1
    14    25     7    1
    15    15     7    1
    16    15    13   am
    17     7    26    1
    18     8    18   ar
    19     8    20   ar
    20    19    13    2
    21    24     5    1
    22    13    14    1
    23     5     6   ar
    24     5     4   ar
    25    14     6   ar
    26    14     2   ar
    27    23     4    1
    28     6     3   ar
    29     4    16   ar
    30    22     2    1
    31     2     1   ar
    32     3    16   ar
    33     3    17   ar
    34    16    34    1
    35     1    17   ar
    36     1    21    1
