@<TRIPOS>MOLECULE
/home/pku/3cl/gett_pdb/7JME/7JME_mol2/ligand/7JME_CMP.pdb
 22 25 0 0 0
SMALL
GASTEIGER

@<TRIPOS>ATOM
      1  P          4.4100  -10.0160   22.8000 P.3   401  CMP401      0.2141
      2  O1P        3.6320   -9.7560   21.5870 O.2   401  CMP401     -0.5172
      3  O2P        3.8990  -11.0110   23.7720 O.3   401  CMP401     -0.4373
      4  O5'        4.6680   -8.6890   23.6650 O.3   401  CMP401     -0.3114
      5  C5'        5.7150   -8.6250   24.6310 C.3   401  CMP401      0.1812
      6  C4'        6.9460   -9.0510   23.9120 C.3   401  CMP401      0.1773
      7  O4'        8.1050   -9.1350   24.7210 O.3   401  CMP401     -0.3307
      8  C3'        6.8490  -10.4390   23.3590 C.3   401  CMP401      0.1860
      9  O3'        5.8880  -10.4660   22.3300 O.3   401  CMP401     -0.3112
     10  C2'        8.3060  -10.7370   22.9600 C.3   401  CMP401      0.2309
     11  O2'        8.5850  -10.2130   21.6970 O.3   401  CMP401     -0.2156
     12  C1'        9.0700   -9.8940   23.9960 C.3   401  CMP401      0.2408
     13  N9         9.8700  -10.6770   24.9550 N.ar  401  CMP401     -0.2693
     14  C8        10.9610  -10.1880   25.6320 C.ar  401  CMP401      0.1816
     15  N7        11.4920  -11.0570   26.4480 N.ar  401  CMP401     -0.2193
     16  C5        10.6880  -12.1810   26.3260 C.ar  401  CMP401      0.1518
     17  C6        10.7260  -13.4380   26.9560 C.ar  401  CMP401      0.1919
     18  N6        11.6540  -13.7870   27.8450 N.pl3 401  CMP401     -0.1054
     19  N1         9.7730  -14.3380   26.6150 N.ar  401  CMP401     -0.2040
     20  C2         8.8440  -13.9810   25.7200 C.ar  401  CMP401      0.2016
     21  N3         8.7060  -12.8270   25.0730 N.ar  401  CMP401     -0.2048
     22  C4         9.6670  -11.9550   25.4240 C.ar  401  CMP401      0.1692
@<TRIPOS>BOND
     1     2     1    2
     2    11    10    1
     3     9     1    1
     4     9     8    1
     5     1     4    1
     6     1     3    1
     7    10     8    1
     8    10    12    1
     9     8     6    1
    10     4     5    1
    11     6     5    1
    12     6     7    1
    13    12     7    1
    14    12    13    1
    15    13    22   ar
    16    13    14   ar
    17    21    22   ar
    18    21    20   ar
    19    22    16   ar
    20    14    15   ar
    21    20    19   ar
    22    16    15   ar
    23    16    17   ar
    24    19    17   ar
    25    17    18    1
