VEV
  -OEChem-02242320043D

 53 54  0     1  0  0  0  0  0999 V2000
   -3.9200    1.2110    0.7330 N   0  0  0  0  0  0  0  0  0  0  0  0
   -2.9980    0.2340    0.6160 C   0  0  0  0  0  0  0  0  0  0  0  0
   -4.8340    1.2210    1.8770 C   0  0  0  0  0  0  0  0  0  0  0  0
   -1.2460    1.4930   -0.5680 C   0  0  0  0  0  0  0  0  0  0  0  0
   -0.3840    1.7780    0.4750 C   0  0  0  0  0  0  0  0  0  0  0  0
    0.2520    3.7620   -0.5070 C   0  0  0  0  0  0  0  0  0  0  0  0
   -1.3500    2.3880   -1.6220 C   0  0  0  0  0  0  0  0  0  0  0  0
    2.3470    0.0320   -1.0080 C   0  0  0  0  0  0  0  0  0  0  0  0
    2.1360   -0.9370    1.1740 C   0  0  0  0  0  0  0  0  0  0  0  0
    4.3890   -0.1460    0.4280 C   0  0  0  0  0  0  0  0  0  0  0  0
    5.1890   -0.9120   -0.6270 C   0  0  0  0  0  0  0  0  0  0  0  0
   -2.9260   -0.6350    1.4590 O   0  0  0  0  0  0  0  0  0  0  0  0
   -2.0570    0.2230   -0.5610 C   0  0  1  0  0  0  0  0  0  0  0  0
   -0.5840    3.5420   -1.5860 C   0  0  0  0  0  0  0  0  0  0  0  0
    0.3300    2.8870    0.4760 N   0  0  0  0  0  0  0  0  0  0  0  0
   -1.1590   -0.9300   -0.4580 N   0  0  0  0  0  0  0  0  0  0  0  0
   -1.6510   -2.1790   -0.5740 C   0  0  0  0  0  0  0  0  0  0  0  0
   -2.8470   -2.3530   -0.6760 O   0  0  0  0  0  0  0  0  0  0  0  0
   -0.7140   -3.3600   -0.5770 C   0  0  0  0  0  0  0  0  0  0  0  0
   -1.5060   -4.6380   -0.8590 C   0  0  0  0  0  0  0  0  0  0  0  0
    0.2090   -0.7340   -0.2380 C   0  0  0  0  0  0  0  0  0  0  0  0
    0.7850   -1.1320    0.9610 C   0  0  0  0  0  0  0  0  0  0  0  0
    2.9160   -0.3560    0.1910 C   0  0  0  0  0  0  0  0  0  0  0  0
    4.7610   -0.6580    1.8210 C   0  0  0  0  0  0  0  0  0  0  0  0
    4.7140    1.3460    0.3290 C   0  0  0  0  0  0  0  0  0  0  0  0
    0.9960   -0.1550   -1.2250 C   0  0  0  0  0  0  0  0  0  0  0  0
   -3.9750    1.9080    0.0610 H   0  0  0  0  0  0  0  0  0  0  0  0
   -4.2600    1.2850    2.8010 H   0  0  0  0  0  0  0  0  0  0  0  0
   -5.4990    2.0820    1.8030 H   0  0  0  0  0  0  0  0  0  0  0  0
   -5.4250    0.3050    1.8790 H   0  0  0  0  0  0  0  0  0  0  0  0
   -0.2940    1.0850    1.2980 H   0  0  0  0  0  0  0  0  0  0  0  0
    0.8520    4.6600   -0.4720 H   0  0  0  0  0  0  0  0  0  0  0  0
   -2.0120    2.1890   -2.4520 H   0  0  0  0  0  0  0  0  0  0  0  0
    2.9590    0.4860   -1.7730 H   0  0  0  0  0  0  0  0  0  0  0  0
    2.5830   -1.2390    2.1100 H   0  0  0  0  0  0  0  0  0  0  0  0
    6.2550   -0.7600   -0.4570 H   0  0  0  0  0  0  0  0  0  0  0  0
    4.9580   -1.9750   -0.5570 H   0  0  0  0  0  0  0  0  0  0  0  0
    4.9250   -0.5480   -1.6200 H   0  0  0  0  0  0  0  0  0  0  0  0
   -2.6320    0.1540   -1.4850 H   0  0  0  0  0  0  0  0  0  0  0  0
   -0.6430    4.2630   -2.3880 H   0  0  0  0  0  0  0  0  0  0  0  0
    0.0410   -3.2230   -1.3510 H   0  0  0  0  0  0  0  0  0  0  0  0
   -0.2280   -3.4410    0.3950 H   0  0  0  0  0  0  0  0  0  0  0  0
   -1.9930   -4.5570   -1.8310 H   0  0  0  0  0  0  0  0  0  0  0  0
   -0.8290   -5.4920   -0.8620 H   0  0  0  0  0  0  0  0  0  0  0  0
   -2.2620   -4.7760   -0.0850 H   0  0  0  0  0  0  0  0  0  0  0  0
    0.1780   -1.5930    1.7260 H   0  0  0  0  0  0  0  0  0  0  0  0
    4.1910   -0.1110    2.5720 H   0  0  0  0  0  0  0  0  0  0  0  0
    4.5300   -1.7200    1.8910 H   0  0  0  0  0  0  0  0  0  0  0  0
    5.8270   -0.5050    1.9910 H   0  0  0  0  0  0  0  0  0  0  0  0
    4.4490    1.7110   -0.6640 H   0  0  0  0  0  0  0  0  0  0  0  0
    4.1440    1.8920    1.0810 H   0  0  0  0  0  0  0  0  0  0  0  0
    5.7790    1.4980    0.5000 H   0  0  0  0  0  0  0  0  0  0  0  0
    0.5520    0.1480   -2.1620 H   0  0  0  0  0  0  0  0  0  0  0  0
  6 15  2  0  0  0  0
  6 14  1  0  0  0  0
  5 15  1  0  0  0  0
  7 14  2  0  0  0  0
  4  5  2  0  0  0  0
  4  7  1  0  0  0  0
  4 13  1  0  0  0  0
 19 20  1  0  0  0  0
  2 12  2  0  0  0  0
 17 18  2  0  0  0  0
 13 16  1  0  0  0  0
  2 13  1  0  0  0  0
 17 19  1  0  0  0  0
 16 17  1  0  0  0  0
  8 26  2  0  0  0  0
 21 26  1  0  0  0  0
 16 21  1  0  0  0  0
  1  2  1  0  0  0  0
  8 23  1  0  0  0  0
 21 22  2  0  0  0  0
  1  3  1  0  0  0  0
 10 24  1  0  0  0  0
  9 23  2  0  0  0  0
 10 23  1  0  0  0  0
  9 22  1  0  0  0  0
 10 25  1  0  0  0  0
 10 11  1  0  0  0  0
  1 27  1  0  0  0  0
  3 28  1  0  0  0  0
  3 29  1  0  0  0  0
  3 30  1  0  0  0  0
  5 31  1  0  0  0  0
  6 32  1  0  0  0  0
  7 33  1  0  0  0  0
  8 34  1  0  0  0  0
  9 35  1  0  0  0  0
 11 36  1  0  0  0  0
 11 37  1  0  0  0  0
 11 38  1  0  0  0  0
 13 39  1  0  0  0  0
 14 40  1  0  0  0  0
 19 41  1  0  0  0  0
 19 42  1  0  0  0  0
 20 43  1  0  0  0  0
 20 44  1  0  0  0  0
 20 45  1  0  0  0  0
 22 46  1  0  0  0  0
 24 47  1  0  0  0  0
 24 48  1  0  0  0  0
 24 49  1  0  0  0  0
 25 50  1  0  0  0  0
 25 51  1  0  0  0  0
 25 52  1  0  0  0  0
 26 53  1  0  0  0  0
M  END
> <OPENEYE_ISO_SMILES>
CCC(=O)N(c1ccc(cc1)C(C)(C)C)[C@H](c2cccnc2)C(=O)NC

> <OPENEYE_INCHI>
InChI=1S/C21H27N3O2/c1-6-18(25)24(17-11-9-16(10-12-17)21(2,3)4)19(20(26)22-5)15-8-7-13-23-14-15/h7-14,19H,6H2,1-5H3,(H,22,26)/t19-/m1/s1

> <OPENEYE_INCHIKEY>
ZEONMUILSPVEHQ-LJQANCHMSA-N

> <FORMULA>
C21H27N3O2

$$$$
