R0L
  -OEChem-02242320033D

 36 39  0     1  0  0  0  0  0999 V2000
    0.0400    3.7880   -0.2690 C   0  0  0  0  0  0  0  0  0  0  0  0
   -1.7180    2.3000   -0.2090 C   0  0  0  0  0  0  0  0  0  0  0  0
   -1.2500   -1.3220    0.2730 C   0  0  0  0  0  0  0  0  0  0  0  0
   -2.2430   -2.2750    0.3290 C   0  0  0  0  0  0  0  0  0  0  0  0
   -3.5750   -1.9050    0.2000 C   0  0  0  0  0  0  0  0  0  0  0  0
   -3.9200   -0.5810    0.0150 C   0  0  0  0  0  0  0  0  0  0  0  0
    2.2270    0.7450    1.4810 C   0  0  0  0  0  0  0  0  0  0  0  0
    2.6900   -1.9400   -0.7010 C   0  0  0  0  0  0  0  0  0  0  0  0
    3.4370   -0.6320   -0.7050 C   0  0  1  0  0  0  0  0  0  0  0  0
    2.4510    0.5200   -0.9170 C   0  0  0  0  0  0  0  0  0  0  0  0
    0.5670    1.5630    0.0290 C   0  0  0  0  0  0  0  0  0  0  0  0
   -0.7980    1.2570   -0.0180 C   0  0  0  0  0  0  0  0  0  0  0  0
   -1.5840    0.0180    0.0860 C   0  0  0  0  0  0  0  0  0  0  0  0
   -2.9300    0.3940   -0.0430 C   0  0  0  0  0  0  0  0  0  0  0  0
    3.2150   -0.4090    1.6700 C   0  0  0  0  0  0  0  0  0  0  0  0
   -4.5410   -2.8480    0.2560 F   0  0  0  0  0  0  0  0  0  0  0  0
    1.5090    0.5660    0.2110 N   0  0  2  0  0  0  0  0  0  0  0  0
   -2.9830    1.7660   -0.2310 N   0  0  0  0  0  0  0  0  0  0  0  0
   -1.2520    3.5430   -0.3280 N   0  0  0  0  0  0  0  0  0  0  0  0
    0.9370    2.8350   -0.0950 N   0  0  0  0  0  0  0  0  0  0  0  0
    2.6470   -2.6090    0.3050 O   0  0  0  0  0  0  0  0  0  0  0  0
    4.1030   -0.4580    0.5490 O   0  0  0  0  0  0  0  0  0  0  0  0
    2.0710   -2.3630   -1.8140 O   0  0  0  0  0  0  0  0  0  0  0  0
    0.3800    4.8080   -0.3700 H   0  0  0  0  0  0  0  0  0  0  0  0
   -0.2140   -1.6120    0.3730 H   0  0  0  0  0  0  0  0  0  0  0  0
   -1.9840   -3.3140    0.4730 H   0  0  0  0  0  0  0  0  0  0  0  0
   -4.9580   -0.3030   -0.0840 H   0  0  0  0  0  0  0  0  0  0  0  0
    1.5130    0.7500    2.3050 H   0  0  0  0  0  0  0  0  0  0  0  0
    2.7690    1.6900    1.4630 H   0  0  0  0  0  0  0  0  0  0  0  0
    4.1730   -0.6350   -1.5100 H   0  0  0  0  0  0  0  0  0  0  0  0
    2.9980    1.4610   -0.9740 H   0  0  0  0  0  0  0  0  0  0  0  0
    1.9010    0.3620   -1.8450 H   0  0  0  0  0  0  0  0  0  0  0  0
    3.7900   -0.2510    2.5820 H   0  0  0  0  0  0  0  0  0  0  0  0
    2.6680   -1.3490    1.7420 H   0  0  0  0  0  0  0  0  0  0  0  0
   -3.7980    2.2770   -0.3500 H   0  0  0  0  0  0  0  0  0  0  0  0
    1.6040   -3.2080   -1.7630 H   0  0  0  0  0  0  0  0  0  0  0  0
  8 21  2  0  0  0  0
  9 10  1  0  0  0  0
 10 17  1  0  0  0  0
 11 12  2  0  0  0  0
 12 13  1  0  0  0  0
 13 14  2  0  0  0  0
  5  6  2  0  0  0  0
  3  4  2  0  0  0  0
  4  5  1  0  0  0  0
  5 16  1  0  0  0  0
  6 14  1  0  0  0  0
 14 18  1  0  0  0  0
  2 18  1  0  0  0  0
  2 19  2  0  0  0  0
  1 19  1  0  0  0  0
  1 20  2  0  0  0  0
 11 17  1  0  0  0  0
  7 17  1  0  0  0  0
  7 15  1  0  0  0  0
 15 22  1  0  0  0  0
  8  9  1  0  0  0  0
  8 23  1  0  0  0  0
  9 22  1  0  0  0  0
 11 20  1  0  0  0  0
  2 12  1  0  0  0  0
  3 13  1  0  0  0  0
  1 24  1  0  0  0  0
  3 25  1  0  0  0  0
  4 26  1  0  0  0  0
  6 27  1  0  0  0  0
  7 28  1  0  0  0  0
  7 29  1  0  0  0  0
  9 30  1  0  0  0  0
 10 31  1  0  0  0  0
 10 32  1  0  0  0  0
 15 33  1  0  0  0  0
 15 34  1  0  0  0  0
 18 35  1  0  0  0  0
 23 36  1  0  0  0  0
M  END
> <OPENEYE_ISO_SMILES>
c1cc2c(cc1F)[nH]c3c2c(ncn3)[N@@]4CCO[C@H](C4)C(=O)O

> <OPENEYE_INCHI>
InChI=1S/C15H13FN4O3/c16-8-1-2-9-10(5-8)19-13-12(9)14(18-7-17-13)20-3-4-23-11(6-20)15(21)22/h1-2,5,7,11H,3-4,6H2,(H,21,22)(H,17,18,19)/t11-/m1/s1

> <OPENEYE_INCHIKEY>
LNMHSQWGJNVQMD-LLVKDONJSA-N

> <FORMULA>
C15H13FN4O3

$$$$
