@<TRIPOS>MOLECULE
/home/pku/3cl/gett_pdb/5SPH/5SPH_mol2/ligand/5SPH_RZR.pdb
 44 46 0 0 0
SMALL
GASTEIGER

@<TRIPOS>ATOM
      1  C18      -45.0240  -27.8410    0.8770 C.ar  201  RZR201     -0.0234
      2  C16      -42.8080  -28.7340    1.1780 C.3   201  RZR201     -0.0166
      3  C17      -43.6850  -27.6200    0.5340 C.ar  201  RZR201     -0.0417
      4  C13      -43.4590  -30.7990    2.4500 C.2   201  RZR201      0.0926
      5  C12      -43.7130  -29.2970    2.2500 C.3   201  RZR201      0.0342
      6  C11      -45.0960  -29.1070    1.7370 C.3   201  RZR201      0.0578
      7  C20      -45.6660  -25.8960   -0.3720 C.ar  201  RZR201     -0.0614
      8  C19      -46.0140  -26.9840    0.4150 C.ar  201  RZR201     -0.0565
      9  C01      -53.4700  -29.3420    9.7360 C.3   201  RZR201      0.0015
     10  C03      -51.6410  -29.1580    8.0190 C.2   201  RZR201      0.3036
     11  C05      -49.5940  -29.0150    6.4770 C.ar  201  RZR201      0.0348
     12  C06      -50.3030  -28.9640    5.2830 C.ar  201  RZR201     -0.0397
     13  C07      -49.6140  -28.9330    4.0760 C.ar  201  RZR201     -0.0479
     14  C08      -48.2270  -28.9610    4.0680 C.ar  201  RZR201      0.0368
     15  C09      -47.4210  -28.9700    2.7740 C.2   201  RZR201      0.2445
     16  C21      -44.3310  -25.6730   -0.7040 C.ar  201  RZR201     -0.0615
     17  C22      -43.3380  -26.5300   -0.2550 C.ar  201  RZR201     -0.0582
     18  C24      -47.5330  -29.0520    5.2620 C.ar  201  RZR201     -0.0479
     19  C25      -48.2140  -29.0790    6.4560 C.ar  201  RZR201     -0.0397
     20  N02      -52.0630  -29.2970    9.3960 N.am  201  RZR201     -0.3022
     21  N04      -50.2140  -29.1000    7.7850 N.am  201  RZR201     -0.2695
     22  N10      -45.9750  -29.0330    2.8850 N.am  201  RZR201     -0.3039
     23  O14      -43.7230  -31.6090    1.5210 O.co2 201  RZR201     -0.8473
     24  O15      -43.0000  -31.2340    3.5380 O.co2 201  RZR201     -0.3086
     25  O23      -47.9560  -28.9790    1.7180 O.2   201  RZR201     -0.2702
     26  O26      -52.4400  -29.0740    7.1520 O.2   201  RZR201     -0.2525
     27 H162      -41.9280  -28.2930    1.6360 H     201  RZR201      0.0320
     28 H161      -42.5710  -29.5000    0.4430 H     201  RZR201      0.0320
     29 H121      -43.5770  -28.7360    3.1740 H     201  RZR201      0.0393
     30 H111      -45.3690  -29.9560    1.1200 H     201  RZR201      0.0555
     31 H201      -46.4330  -25.2260   -0.7310 H     201  RZR201      0.0618
     32 H191      -47.0480  -27.1690    0.6780 H     201  RZR201      0.0621
     33 H013      -53.5720  -29.4860   10.8070 H     201  RZR201      0.0426
     34 H012      -53.9480  -30.1660    9.2120 H     201  RZR201      0.0426
     35 H011      -53.9380  -28.4090    9.4490 H     201  RZR201      0.0426
     36 H061      -51.3880  -28.9310    5.2860 H     201  RZR201      0.0636
     37 H071      -50.1620  -28.8840    3.1420 H     201  RZR201      0.0626
     38 H211      -44.0740  -24.8280   -1.3170 H     201  RZR201      0.0618
     39 H221      -42.3020  -26.3520   -0.5150 H     201  RZR201      0.0620
     40 H241      -46.4510  -29.0950    5.2660 H     201  RZR201      0.0626
     41 H251      -47.6640  -29.1400    7.3840 H     201  RZR201      0.0636
     42 H021      -51.3710  -29.3620   10.1130 H     201  RZR201      0.1499
     43 H041      -49.6170  -29.1980    8.5810 H     201  RZR201      0.1564
     44 H101      -45.5570  -29.0430    3.7940 H     201  RZR201      0.1496
@<TRIPOS>UNITY_ATOM_ATTR
23 1
charge -1
@<TRIPOS>BOND
     1    38    16    1
     2    31     7    1
     3    16     7   ar
     4    16    17   ar
     5    39    17    1
     6     7     8   ar
     7    17     3   ar
     8     8    32    1
     9     8     1   ar
    10    28     2    1
    11     3     1   ar
    12     3     2    1
    13     1     6    1
    14    30     6    1
    15     2    27    1
    16     2     5    1
    17    23     4   ar
    18    25    15    2
    19     6     5    1
    20     6    22    1
    21     5     4    1
    22     5    29    1
    23     4    24   ar
    24    15    22   am
    25    15    14    1
    26    22    44    1
    27    37    13    1
    28    14    13   ar
    29    14    18   ar
    30    13    12   ar
    31    18    40    1
    32    18    19   ar
    33    12    36    1
    34    12    11   ar
    35    19    11   ar
    36    19    41    1
    37    11    21    1
    38    26    10    2
    39    21    10   am
    40    21    43    1
    41    10    20   am
    42    34     9    1
    43    20     9    1
    44    20    42    1
    45    35     9    1
    46     9    33    1
