@<TRIPOS>MOLECULE
/home/pku/3cl/gett_pdb/7WQI/7WQI_mol2/ligand/7WQI_80I.pdb
 38 40 0 0 0
SMALL
GASTEIGER

@<TRIPOS>ATOM
      1  C10      -70.9230   22.3010   -9.6600 C.2   401  80I401      0.0074
      2  C13      -72.3060   22.0500   -7.4850 C.3   401  80I401      0.1749
      3  C15      -67.1590   28.5790   -6.6260 C.3   401  80I401      0.1731
      4  C20      -64.1980   28.5260   -9.1780 C.3   401  80I401      0.0821
      5  C21      -63.8280   29.0760  -10.3930 C.2   401  80I401      0.2410
      6  C24      -63.0390   27.4200   -8.8500 C.3   401  80I401      0.0326
      7  C26      -63.7110   30.3340   -5.7470 C.2   401  80I401      0.2005
      8  C02      -67.9910   27.7430   -9.1760 C.2   401  80I401      0.2829
      9  C03      -68.7320   26.3710   -9.2180 C.2   401  80I401      0.1359
     10  C05      -69.5330   25.6370   -8.3210 C.2   401  80I401      0.0237
     11  C06      -69.9540   24.4430   -8.9940 C.2   401  80I401      0.0280
     12  C07      -69.4020   24.5250  -10.2530 C.2   401  80I401      0.0801
     13  C08      -69.5990   23.5190  -11.2160 C.2   401  80I401      0.0186
     14  C09      -70.3600   22.4050  -10.9210 C.2   401  80I401     -0.0003
     15  C11      -70.7350   23.2930   -8.6980 C.3   401  80I401      0.1611
     16  C16      -66.0170   27.6610   -6.1640 C.2   401  80I401      0.2616
     17  C18      -63.8380   29.1440   -6.7160 C.3   401  80I401      0.1554
     18  C19      -64.2820   29.6190   -8.1060 C.3   401  80I401      0.0385
     19  C23      -62.5020   27.0790  -10.0460 C.3   401  80I401      0.1156
     20  C27      -64.5360   30.4480   -4.4680 C.3   401  80I401      0.2194
     21  C35      -68.3190   28.4010   -5.6320 C.3   401  80I401      0.0311
     22  C36      -69.7540   28.2940   -6.1230 C.3   401  80I401      0.0022
     23  C37      -70.5300   29.5570   -5.7520 C.3   401  80I401      0.0001
     24  C38      -70.3870   27.0930   -5.4210 C.3   401  80I401      0.0001
     25  N04      -68.7120   25.6640  -10.3300 N.2   401  80I401     -0.2410
     26  N14      -67.4030   28.5490   -8.0850 N.am  401  80I401     -0.1927
     27  N17      -64.5850   27.9810   -6.2020 N.am  401  80I401     -0.1981
     28  N22      -62.8150   28.2820  -11.0100 N.am  401  80I401     -0.2054
     29  O01      -67.8500   28.2910  -10.2470 O.2   401  80I401     -0.2667
     30  O12      -71.3540   23.0850   -7.4580 O.3   401  80I401     -0.3447
     31  O25      -64.2920   30.0580  -10.8590 O.2   401  80I401     -0.2734
     32  O28      -64.6880   29.1720   -3.9110 O.3   401  80I401     -0.2621
     33  O30      -63.4870   29.3430   -1.6210 O.3   401  80I401     -0.1145
     34  O31      -62.1780   28.5960   -3.5740 O.2   401  80I401     -0.2224
     35  O32      -63.8850   27.1190   -2.5940 O.3   401  80I401     -0.1145
     36  O33      -62.9080   31.1630   -5.9970 O.2   401  80I401     -0.2916
     37  O34      -66.3240   26.6230   -5.6850 O.2   401  80I401     -0.2715
     38  P29      -63.5320   28.5530   -2.9070 P.3   401  80I401      0.5330
@<TRIPOS>BOND
     1    13    14    1
     2    13    12    2
     3    28     5   am
     4    28    19    1
     5    14     1    2
     6    31     5    2
     7     5     4    1
     8    25    12    1
     9    25     9    2
    10    12    11    1
    11    29     8    2
    12    19     6    1
    13     1    15    1
    14     9     8    1
    15     9    10    1
    16     4     6    1
    17     4    18    1
    18     8    26   am
    19    11    15    1
    20    11    10    2
    21    15    30    1
    22    18    17    1
    23    26     3    1
    24     2    30    1
    25    17    27    1
    26    17     7    1
    27     3    16    1
    28     3    21    1
    29    27    16   am
    30    16    37    2
    31    22    23    1
    32    22    21    1
    33    22    24    1
    34    36     7    2
    35     7    20    1
    36    20    32    1
    37    32    38    1
    38    34    38    2
    39    38    35    1
    40    38    33    1
