@<TRIPOS>MOLECULE
/home/pku/3cl/gett_pdb/8E64/8E64_mol2/ligand/8E64_WEL.pdb
 26 26 0 0 0
SMALL
GASTEIGER

@<TRIPOS>ATOM
      1  C1        10.4730   28.0000   22.9940 C.3   401  WEL401      0.0038
      2  O1        11.2130   25.4700   25.6780 O.3   401  WEL401     -0.4335
      3  C2        11.0350   27.4610   24.3030 C.3   401  WEL401      0.0439
      4  O2         6.6860   20.2080   23.6220 O.2   401  WEL401     -0.2734
      5  C3        10.4140   26.1320   24.6620 C.3   401  WEL401      0.2100
      6  O3         8.0290   18.0440   28.6380 O.3   401  WEL401     -0.2185
      7  C4        11.1720   24.1240   25.6640 C.2   401  WEL401      0.4215
      8  O4        10.0160   22.4180   28.2360 O.2   401  WEL401     -0.2715
      9  C5        11.9950   22.2040   26.9210 C.3   401  WEL401      0.1761
     10  O5        10.5550   23.4500   24.8720 O.2   401  WEL401     -0.2246
     11  C6        13.0810   21.9220   27.9530 C.3   401  WEL401      0.0312
     12  C7        14.4770   22.3420   27.5100 C.3   401  WEL401      0.0022
     13  C8        15.4510   22.3090   28.6900 C.3   401  WEL401      0.0001
     14  C9        14.9460   21.4490   26.3880 C.3   401  WEL401      0.0001
     15  C10       10.6550   21.7130   27.4540 C.2   401  WEL401      0.2614
     16  C11        8.9600   19.9420   27.4550 C.3   401  WEL401      0.1287
     17  C12        7.9560   19.7870   26.3010 C.3   401  WEL401      0.0335
     18  C13        7.4620   21.1280   25.7640 C.3   401  WEL401      0.0818
     19  C14        6.5190   20.9780   24.5820 C.2   401  WEL401      0.2410
     20  C15        5.5790   22.6470   25.9330 C.3   401  WEL401      0.1156
     21  C16        6.6520   21.9480   26.7660 C.3   401  WEL401      0.0326
     22  C17        9.2410   18.6160   28.1170 C.3   401  WEL401      0.2036
     23  C18       12.5470   27.3000   24.2290 C.3   401  WEL401      0.0038
     24  N1        11.9550   23.6270   26.6340 N.am  401  WEL401     -0.1611
     25  N2        10.2210   20.5330   27.0070 N.am  401  WEL401     -0.2030
     26  N3         5.4870   21.8090   24.7430 N.am  401  WEL401     -0.2054
@<TRIPOS>BOND
     1     1     3    1
     2     4    19    2
     3    23     3    1
     4     3     5    1
     5    19    26   am
     6    19    18    1
     7     5     2    1
     8    26    20    1
     9    10     7    2
    10     7     2    1
    11     7    24   am
    12    18    17    1
    13    18    21    1
    14    20    21    1
    15    17    16    1
    16    14    12    1
    17    24     9    1
    18     9    15    1
    19     9    11    1
    20    25    15   am
    21    25    16    1
    22    15     8    2
    23    16    22    1
    24    12    11    1
    25    12    13    1
    26    22     6    1
