RIZ
  -OEChem-02242320043D

 41 44  0     1  0  0  0  0  0999 V2000
   -2.6580    2.3400   -0.2730 C   0  0  0  0  0  0  0  0  0  0  0  0
   -1.6210    1.4350   -0.2160 C   0  0  0  0  0  0  0  0  0  0  0  0
   -3.9730    1.9050   -0.1670 C   0  0  0  0  0  0  0  0  0  0  0  0
   -4.2560    0.5630   -0.0090 C   0  0  0  0  0  0  0  0  0  0  0  0
   -3.2220   -0.3650    0.0450 C   0  0  0  0  0  0  0  0  0  0  0  0
   -1.8930    0.0790   -0.0510 C   0  0  0  0  0  0  0  0  0  0  0  0
   -1.0500   -1.1230    0.0480 C   0  0  0  0  0  0  0  0  0  0  0  0
    0.3290   -1.3620    0.0150 C   0  0  0  0  0  0  0  0  0  0  0  0
   -1.9210   -2.2120    0.2090 C   0  0  0  0  0  0  0  0  0  0  0  0
    3.0170    1.0330    1.6680 C   0  0  0  0  0  0  0  0  0  0  0  0
    3.4280    0.6620    0.2670 C   0  0  2  0  0  0  0  0  0  0  0  0
    3.1040    1.8170   -0.6830 C   0  0  0  0  0  0  0  0  0  0  0  0
    3.5210    1.4400   -2.1060 C   0  0  0  0  0  0  0  0  0  0  0  0
    2.7580    0.1890   -2.5460 C   0  0  0  0  0  0  0  0  0  0  0  0
    3.0810   -0.9660   -1.5960 C   0  0  0  0  0  0  0  0  0  0  0  0
    2.6640   -0.5890   -0.1730 C   0  0  2  0  0  0  0  0  0  0  0  0
   -0.0940   -3.6130    0.2870 C   0  0  0  0  0  0  0  0  0  0  0  0
   -4.9820    2.8020   -0.2190 F   0  0  0  0  0  0  0  0  0  0  0  0
    1.2250   -0.3190   -0.1410 N   0  0  0  0  0  0  0  0  0  0  0  0
   -3.2110   -1.7410    0.1940 N   0  0  0  0  0  0  0  0  0  0  0  0
   -1.3970   -3.4320    0.3230 N   0  0  0  0  0  0  0  0  0  0  0  0
    0.7580   -2.6160    0.1370 N   0  0  0  0  0  0  0  0  0  0  0  0
    3.5610    2.1050    2.2650 O   0  0  0  0  0  0  0  0  0  0  0  0
    2.1980    0.3660    2.2550 O   0  0  0  0  0  0  0  0  0  0  0  0
   -2.4480    3.3930   -0.3970 H   0  0  0  0  0  0  0  0  0  0  0  0
   -0.6000    1.7760   -0.2990 H   0  0  0  0  0  0  0  0  0  0  0  0
   -5.2810    0.2340    0.0720 H   0  0  0  0  0  0  0  0  0  0  0  0
    4.4990    0.4610    0.2430 H   0  0  0  0  0  0  0  0  0  0  0  0
    2.0330    2.0180   -0.6590 H   0  0  0  0  0  0  0  0  0  0  0  0
    3.6480    2.7080   -0.3690 H   0  0  0  0  0  0  0  0  0  0  0  0
    3.2900    2.2630   -2.7820 H   0  0  0  0  0  0  0  0  0  0  0  0
    4.5920    1.2390   -2.1290 H   0  0  0  0  0  0  0  0  0  0  0  0
    1.6860    0.3900   -2.5220 H   0  0  0  0  0  0  0  0  0  0  0  0
    3.0550   -0.0800   -3.5600 H   0  0  0  0  0  0  0  0  0  0  0  0
    2.5380   -1.8570   -1.9100 H   0  0  0  0  0  0  0  0  0  0  0  0
    4.1520   -1.1670   -1.6200 H   0  0  0  0  0  0  0  0  0  0  0  0
    2.8950   -1.4120    0.5030 H   0  0  0  0  0  0  0  0  0  0  0  0
    0.2940   -4.6160    0.3830 H   0  0  0  0  0  0  0  0  0  0  0  0
    0.9000    0.5900   -0.2300 H   0  0  0  0  0  0  0  0  0  0  0  0
   -4.0030   -2.2940    0.2900 H   0  0  0  0  0  0  0  0  0  0  0  0
    3.2660    2.3040    3.1640 H   0  0  0  0  0  0  0  0  0  0  0  0
 14 15  1  0  0  0  0
 13 14  1  0  0  0  0
 15 16  1  0  0  0  0
 12 13  1  0  0  0  0
 11 12  1  0  0  0  0
 11 16  1  0  0  0  0
 10 11  1  0  0  0  0
 16 19  1  0  0  0  0
 10 24  2  0  0  0  0
 10 23  1  0  0  0  0
  8 19  1  0  0  0  0
  1  2  2  0  0  0  0
  2  6  1  0  0  0  0
  1  3  1  0  0  0  0
  8 22  2  0  0  0  0
  7  8  1  0  0  0  0
  6  7  1  0  0  0  0
  5  6  2  0  0  0  0
  3 18  1  0  0  0  0
  3  4  2  0  0  0  0
 17 22  1  0  0  0  0
  7  9  2  0  0  0  0
  4  5  1  0  0  0  0
  5 20  1  0  0  0  0
 17 21  2  0  0  0  0
  9 20  1  0  0  0  0
  9 21  1  0  0  0  0
  1 25  1  0  0  0  0
  2 26  1  0  0  0  0
  4 27  1  0  0  0  0
 11 28  1  0  0  0  0
 12 29  1  0  0  0  0
 12 30  1  0  0  0  0
 13 31  1  0  0  0  0
 13 32  1  0  0  0  0
 14 33  1  0  0  0  0
 14 34  1  0  0  0  0
 15 35  1  0  0  0  0
 15 36  1  0  0  0  0
 16 37  1  0  0  0  0
 17 38  1  0  0  0  0
 19 39  1  0  0  0  0
 20 40  1  0  0  0  0
 23 41  1  0  0  0  0
M  END
> <OPENEYE_ISO_SMILES>
c1cc2c(cc1F)[nH]c3c2c(ncn3)N[C@H]4CCCC[C@H]4C(=O)O

> <OPENEYE_INCHI>
InChI=1S/C17H17FN4O2/c18-9-5-6-10-13(7-9)22-16-14(10)15(19-8-20-16)21-12-4-2-1-3-11(12)17(23)24/h5-8,11-12H,1-4H2,(H,23,24)(H2,19,20,21,22)/t11-,12+/m1/s1

> <OPENEYE_INCHIKEY>
VLGDVQRYEOXYDY-NEPJUHHUSA-N

> <FORMULA>
C17H17FN4O2

$$$$
