RJ9
  -OEChem-02242320043D

 41 44  0     1  0  0  0  0  0999 V2000
    3.0200   -1.0320    1.6680 C   0  0  0  0  0  0  0  0  0  0  0  0
    3.4280   -0.6610    0.2660 C   0  0  1  0  0  0  0  0  0  0  0  0
    3.1030   -1.8160   -0.6830 C   0  0  0  0  0  0  0  0  0  0  0  0
    3.5170   -1.4400   -2.1070 C   0  0  0  0  0  0  0  0  0  0  0  0
    2.7530   -0.1890   -2.5460 C   0  0  0  0  0  0  0  0  0  0  0  0
    3.0780    0.9660   -1.5980 C   0  0  0  0  0  0  0  0  0  0  0  0
    2.6640    0.5900   -0.1740 C   0  0  1  0  0  0  0  0  0  0  0  0
    0.3280    1.3630    0.0180 C   0  0  0  0  0  0  0  0  0  0  0  0
   -1.0510    1.1240    0.0470 C   0  0  0  0  0  0  0  0  0  0  0  0
   -1.8930   -0.0780   -0.0510 C   0  0  0  0  0  0  0  0  0  0  0  0
   -3.2220    0.3630    0.0520 C   0  0  0  0  0  0  0  0  0  0  0  0
   -4.2550   -0.5660   -0.0090 C   0  0  0  0  0  0  0  0  0  0  0  0
   -3.9700   -1.9070   -0.1680 C   0  0  0  0  0  0  0  0  0  0  0  0
   -2.6550   -2.3410   -0.2690 C   0  0  0  0  0  0  0  0  0  0  0  0
   -1.6190   -1.4350   -0.2120 C   0  0  0  0  0  0  0  0  0  0  0  0
   -1.9220    2.2130    0.2030 C   0  0  0  0  0  0  0  0  0  0  0  0
   -0.0950    3.6130    0.2840 C   0  0  0  0  0  0  0  0  0  0  0  0
   -4.9790   -2.8040   -0.2250 F   0  0  0  0  0  0  0  0  0  0  0  0
    1.2240    0.3200   -0.1390 N   0  0  0  0  0  0  0  0  0  0  0  0
   -3.2120    1.7400    0.2030 N   0  0  0  0  0  0  0  0  0  0  0  0
   -1.3980    3.4330    0.3170 N   0  0  0  0  0  0  0  0  0  0  0  0
    0.7570    2.6170    0.1390 N   0  0  0  0  0  0  0  0  0  0  0  0
    2.1980   -0.3670    2.2540 O   0  0  0  0  0  0  0  0  0  0  0  0
    3.5650   -2.1030    2.2640 O   0  0  0  0  0  0  0  0  0  0  0  0
    4.4990   -0.4600    0.2400 H   0  0  0  0  0  0  0  0  0  0  0  0
    3.6470   -2.7070   -0.3700 H   0  0  0  0  0  0  0  0  0  0  0  0
    2.0320   -2.0170   -0.6570 H   0  0  0  0  0  0  0  0  0  0  0  0
    4.5880   -1.2390   -2.1320 H   0  0  0  0  0  0  0  0  0  0  0  0
    3.2860   -2.2630   -2.7820 H   0  0  0  0  0  0  0  0  0  0  0  0
    3.0480    0.0790   -3.5600 H   0  0  0  0  0  0  0  0  0  0  0  0
    1.6820   -0.3900   -2.5200 H   0  0  0  0  0  0  0  0  0  0  0  0
    4.1490    1.1670   -1.6230 H   0  0  0  0  0  0  0  0  0  0  0  0
    2.5340    1.8570   -1.9110 H   0  0  0  0  0  0  0  0  0  0  0  0
    2.8950    1.4130    0.5020 H   0  0  0  0  0  0  0  0  0  0  0  0
   -5.2810   -0.2370    0.0690 H   0  0  0  0  0  0  0  0  0  0  0  0
   -2.4440   -3.3930   -0.3930 H   0  0  0  0  0  0  0  0  0  0  0  0
   -0.5970   -1.7750   -0.2910 H   0  0  0  0  0  0  0  0  0  0  0  0
    0.2920    4.6170    0.3790 H   0  0  0  0  0  0  0  0  0  0  0  0
    0.8990   -0.5900   -0.2270 H   0  0  0  0  0  0  0  0  0  0  0  0
   -4.0040    2.2920    0.2960 H   0  0  0  0  0  0  0  0  0  0  0  0
    3.2720   -2.3020    3.1640 H   0  0  0  0  0  0  0  0  0  0  0  0
  3  4  1  0  0  0  0
  4  5  1  0  0  0  0
  2  3  1  0  0  0  0
  1  2  1  0  0  0  0
  2  7  1  0  0  0  0
  1 23  2  0  0  0  0
  1 24  1  0  0  0  0
  5  6  1  0  0  0  0
  6  7  1  0  0  0  0
  7 19  1  0  0  0  0
  8 19  1  0  0  0  0
 14 15  2  0  0  0  0
 10 15  1  0  0  0  0
 13 14  1  0  0  0  0
  8 22  2  0  0  0  0
  8  9  1  0  0  0  0
  9 10  1  0  0  0  0
 10 11  2  0  0  0  0
 13 18  1  0  0  0  0
 12 13  2  0  0  0  0
 17 22  1  0  0  0  0
  9 16  2  0  0  0  0
 11 12  1  0  0  0  0
 11 20  1  0  0  0  0
 17 21  2  0  0  0  0
 16 21  1  0  0  0  0
 16 20  1  0  0  0  0
  2 25  1  0  0  0  0
  3 26  1  0  0  0  0
  3 27  1  0  0  0  0
  4 28  1  0  0  0  0
  4 29  1  0  0  0  0
  5 30  1  0  0  0  0
  5 31  1  0  0  0  0
  6 32  1  0  0  0  0
  6 33  1  0  0  0  0
  7 34  1  0  0  0  0
 12 35  1  0  0  0  0
 14 36  1  0  0  0  0
 15 37  1  0  0  0  0
 17 38  1  0  0  0  0
 19 39  1  0  0  0  0
 20 40  1  0  0  0  0
 24 41  1  0  0  0  0
M  END
> <OPENEYE_ISO_SMILES>
c1cc2c(cc1F)[nH]c3c2c(ncn3)N[C@@H]4CCCC[C@@H]4C(=O)O

> <OPENEYE_INCHI>
InChI=1S/C17H17FN4O2/c18-9-5-6-10-13(7-9)22-16-14(10)15(19-8-20-16)21-12-4-2-1-3-11(12)17(23)24/h5-8,11-12H,1-4H2,(H,23,24)(H2,19,20,21,22)/t11-,12+/m0/s1

> <OPENEYE_INCHIKEY>
VLGDVQRYEOXYDY-NWDGAFQWSA-N

> <FORMULA>
C17H17FN4O2

$$$$
