@<TRIPOS>MOLECULE
/home/pku/3cl/gett_pdb/7TQ3/7TQ3_mol2/ligand/7TQ3_IS5.pdb
 66 21 0 0 0
SMALL
GASTEIGER

@<TRIPOS>ATOM
      1  C13       12.2980   22.1870   26.8740 C.3   401  IS5401      0.0000
      2  C13       12.2480   22.2050   26.8980 C.3   401  IS5401      0.1297
      3  C15       14.7900   22.4530   27.3900 C.3   401  IS5401      0.0000
      4  C15       14.7610   22.4560   27.3490 C.3   401  IS5401      0.0000
      5  C16       15.2740   21.6710   26.1460 C.3   401  IS5401      0.0000
      6  C16       15.2440   21.6430   26.1250 C.3   401  IS5401      0.0000
      7  C19       11.0830   24.0620   25.7520 C.3   401  IS5401      0.0000
      8  C19       11.0370   24.0750   25.7790 C.2   401  IS5401      0.2794
      9  C17       15.8260   22.4080   28.5520 C.3   401  IS5401      0.0000
     10  C17       15.8040   22.4550   28.5060 C.3   401  IS5401      0.0000
     11  C12       10.9660   21.6980   27.4390 C.3   401  IS5401      0.0000
     12  C12       10.9400   21.7080   27.5150 C.2   401  IS5401      0.2794
     13  C01        9.4000   18.4330   28.0640 C.3   401  IS5401      0.1822
     14  C01        9.5430   18.4360   28.1820 C.2   401  IS5401      0.2794
     15  C03        9.2090   19.8350   27.4660 C.3   401  IS5401      0.1297
     16  C03        9.2050   19.8090   27.5810 C.3   401  IS5401      0.0382
     17  C04        8.2000   19.7660   26.2740 C.3   401  IS5401      0.0000
     18  C04        8.1580   19.7050   26.4220 C.3   401  IS5401      0.0000
     19  C05        7.7470   21.1360   25.6600 C.3   401  IS5401      0.0000
     20  C05        7.7470   21.0600   25.7440 C.3   401  IS5401      0.0000
     21  C06        6.8920   20.9670   24.6760 C.2   401  IS5401      0.2794
     22  C06        6.8780   20.8800   24.7730 C.3   401  IS5401      0.0000
     23  C08        6.0790   22.7820   26.2050 C.3   401  IS5401      0.0000
     24  C08        6.1400   22.7930   26.2180 C.1   401  IS5401      0.0000
     25  C09        6.9400   22.0310   26.8250 C.1   401  IS5401      0.0000
     26  C09        6.9840   22.0450   26.8660 C.3   401  IS5401      0.0000
     27  C14       13.4180   21.9220   27.8800 C.3   401  IS5401      0.0000
     28  C14       13.4000   21.9180   27.8610 C.3   401  IS5401      0.0000
     29  C21        9.7840   25.8130   24.7720 C.3   401  IS5401      0.2175
     30  C21        9.7590   25.8210   24.7620 C.3   401  IS5401      0.0000
     31  C22        9.8070   27.3330   24.4500 C.3   401  IS5401      0.0000
     32  C22        9.7880   27.3410   24.4310 C.3   401  IS5401      0.0000
     33  C23       11.2010   27.9650   24.4420 C.3   401  IS5401      0.0000
     34  C23       11.1850   27.9680   24.4330 C.3   401  IS5401      0.0000
     35  C24       10.4170   27.8360   23.1320 C.3   401  IS5401      0.0000
     36  C24       10.4110   27.8390   23.1170 C.3   401  IS5401      0.0000
     37  C25       11.8290   29.3130   24.8660 C.3   401  IS5401      0.0000
     38  C25       11.8150   29.3150   24.8580 C.3   401  IS5401      0.0000
     39  C26       12.9770   29.2990   25.6580 C.3   401  IS5401      0.0000
     40  C26       12.9630   29.2970   25.6500 C.3   401  IS5401      0.0000
     41  C27       13.5610   30.4960   26.0630 C.3   401  IS5401      0.2312
     42  C27       13.5500   30.4920   26.0570 C.3   401  IS5401      0.0000
     43  C29       12.9880   31.7110   25.6790 C.3   401  IS5401      0.0000
     44  C29       12.9800   31.7090   25.6750 C.3   401  IS5401      0.0000
     45  C30       11.8350   31.7280   24.8950 C.3   401  IS5401      0.0000
     46  C30       11.8270   31.7290   24.8900 C.3   401  IS5401      0.0000
     47  C31       11.2500   30.5270   24.4860 C.3   401  IS5401      0.0000
     48  C31       11.2400   30.5310   24.4800 C.3   401  IS5401      0.0000
     49  F28       14.6950   30.4760   26.8310 F     401  IS5401      0.0000
     50  F28       14.6830   30.4680   26.8260 F     401  IS5401     -0.2312
     51  N07        5.7150   22.0010   24.9050 N.3   401  IS5401      0.0000
     52  N07        5.7430   21.9680   24.9560 N.3   401  IS5401      0.0000
     53  N11       10.4820   20.3730   27.0010 N.3   401  IS5401      0.0000
     54  N11       10.4460   20.3860   27.0770 N.3   401  IS5401     -0.1297
     55  N18       12.1770   23.6030   26.6160 N.3   401  IS5401     -0.1297
     56  N18       12.1250   23.6230   26.6540 N.3   401  IS5401      0.0000
     57  O02       10.0700   18.5410   29.3020 O.2   401  IS5401     -0.2794
     58  O02        8.3810   17.7840   28.6670 O.3   401  IS5401     -0.2204
     59  O10        6.9300   20.2190   23.7510 O.3   401  IS5401      0.0000
     60  O10        6.8780   20.0900   23.8830 O.2   401  IS5401     -0.2794
     61  O20       10.9480   25.4530   25.4920 O.3   401  IS5401      0.0000
     62  O20       10.9290   25.4580   25.4710 O.3   401  IS5401     -0.2175
     63  O32       10.3360   23.2590   25.2760 O.2   401  IS5401     -0.2794
     64  O32       10.2730   23.2670   25.3370 O.3   401  IS5401      0.0000
     65  O33       10.3540   22.3910   28.1970 O.2   401  IS5401     -0.2794
     66  O33       10.3600   22.3860   28.3120 O.3   401  IS5401      0.0000
@<TRIPOS>BOND
     1    35    32    1
     2    35    34    1
     3    60    21    2
     4    34    31    1
     5    47    38    1
     6    47    46    1
     7    29    62    1
     8    37    40    1
     9    45    44    1
    10    63     8    2
    11    41    50    1
    12     5     4    1
    13    24    25    3
    14    55     2    1
    15    54    15    1
    16     4    27    1
    17     3    10    1
    18    12    65    2
    19    16    13    1
    20    13    58    1
    21    14    57    2
