XNV
  -OEChem-02242320043D

 69 71  0     1  0  0  0  0  0999 V2000
    8.2530   -4.5850   -0.3780 C   0  0  0  0  0  0  0  0  0  0  0  0
    7.8770   -3.3300    0.4120 C   0  0  0  0  0  0  0  0  0  0  0  0
    6.6260   -2.7960   -0.0970 O   0  0  0  0  0  0  0  0  0  0  0  0
    6.1530   -1.6860    0.4930 C   0  0  0  0  0  0  0  0  0  0  0  0
    4.8600   -1.0740    0.0190 C   0  0  0  0  0  0  0  0  0  0  0  0
    4.5500    0.1710    0.8520 C   0  0  0  0  0  0  0  0  0  0  0  0
    3.2370    0.7930    0.3710 C   0  0  1  0  0  0  0  0  0  0  0  0
    2.1330   -0.1340    0.6330 N   0  0  0  0  0  0  0  0  0  0  0  0
    1.0370   -0.1140   -0.1500 C   0  0  0  0  0  0  0  0  0  0  0  0
   -0.1450   -0.9870    0.1860 C   0  0  1  0  0  0  0  0  0  0  0  0
   -1.2000   -0.7840   -0.8100 N   0  0  0  0  0  0  0  0  0  0  0  0
   -2.4080   -0.3340   -0.4180 C   0  0  0  0  0  0  0  0  0  0  0  0
   -3.4300   -0.1370   -1.3720 C   0  0  0  0  0  0  0  0  0  0  0  0
   -4.6890    0.3310   -0.9760 N   0  0  0  0  0  0  0  0  0  0  0  0
   -5.4140   -0.3650   -0.0790 C   0  0  0  0  0  0  0  0  0  0  0  0
   -6.7900    0.0710    0.2610 C   0  0  0  0  0  0  0  0  0  0  0  0
   -7.4330    1.1020   -0.2290 N   0  0  0  0  0  0  0  0  0  0  0  0
   -8.5410    1.1990    0.2440 O   0  0  0  0  0  0  0  0  0  0  0  0
   -8.7900    0.2250    1.1320 C   0  0  0  0  0  0  0  0  0  0  0  0
  -10.0610    0.0280    1.9170 C   0  0  0  0  0  0  0  0  0  0  0  0
   -7.6810   -0.5490    1.1810 C   0  0  0  0  0  0  0  0  0  0  0  0
   -4.9410   -1.3510    0.4520 O   0  0  0  0  0  0  0  0  0  0  0  0
   -3.1750   -0.4080   -2.6890 C   0  0  0  0  0  0  0  0  0  0  0  0
   -1.9060   -0.8750   -3.0590 C   0  0  0  0  0  0  0  0  0  0  0  0
   -0.9480   -1.0480   -2.1190 C   0  0  0  0  0  0  0  0  0  0  0  0
   -2.6180   -0.0980    0.7610 O   0  0  0  0  0  0  0  0  0  0  0  0
    0.2870   -2.4540    0.1800 C   0  0  0  0  0  0  0  0  0  0  0  0
   -0.8350   -3.2970    0.6250 C   0  0  0  0  0  0  0  0  0  0  0  0
   -1.7300   -3.9700    0.9790 C   0  0  0  0  0  0  0  0  0  0  0  0
    1.0010    0.6060   -1.1250 O   0  0  0  0  0  0  0  0  0  0  0  0
    2.9910    2.1050    1.1180 C   0  0  0  0  0  0  0  0  0  0  0  0
    4.0630    3.1240    0.7280 C   0  0  2  0  0  0  0  0  0  0  0  0
    3.9330    4.4030    1.5870 C   0  0  0  0  0  0  0  0  0  0  0  0
    4.2960    5.5050    0.5670 C   0  0  0  0  0  0  0  0  0  0  0  0
    3.9760    4.9420   -0.7490 N   0  0  0  0  0  0  0  0  0  0  0  0
    3.8450    3.6050   -0.6900 C   0  0  0  0  0  0  0  0  0  0  0  0
    3.5900    2.8890   -1.6350 O   0  0  0  0  0  0  0  0  0  0  0  0
    6.7640   -1.1790    1.4030 O   0  0  0  0  0  0  0  0  0  0  0  0
   -0.5220   -0.7230    1.1740 H   0  0  0  0  0  0  0  0  0  0  0  0
  -10.7740    0.8100    1.6570 H   0  0  0  0  0  0  0  0  0  0  0  0
  -10.4880   -0.9460    1.6780 H   0  0  0  0  0  0  0  0  0  0  0  0
   -9.8410    0.0770    2.9830 H   0  0  0  0  0  0  0  0  0  0  0  0
    7.4680   -5.3330   -0.2690 H   0  0  0  0  0  0  0  0  0  0  0  0
   -7.5120   -1.4310    1.7810 H   0  0  0  0  0  0  0  0  0  0  0  0
    2.0070    2.4940    0.8540 H   0  0  0  0  0  0  0  0  0  0  0  0
    8.3690   -4.3310   -1.4320 H   0  0  0  0  0  0  0  0  0  0  0  0
    3.0340    1.9250    2.1920 H   0  0  0  0  0  0  0  0  0  0  0  0
    9.1920   -4.9870    0.0030 H   0  0  0  0  0  0  0  0  0  0  0  0
    7.7610   -3.5850    1.4650 H   0  0  0  0  0  0  0  0  0  0  0  0
    5.0570    2.6900    0.8370 H   0  0  0  0  0  0  0  0  0  0  0  0
    8.6620   -2.5830    0.3020 H   0  0  0  0  0  0  0  0  0  0  0  0
   -3.9430   -0.2640   -3.4350 H   0  0  0  0  0  0  0  0  0  0  0  0
    2.9130    4.5270    1.9500 H   0  0  0  0  0  0  0  0  0  0  0  0
    4.6410    4.3900    2.4160 H   0  0  0  0  0  0  0  0  0  0  0  0
   -5.0380    1.1560   -1.3470 H   0  0  0  0  0  0  0  0  0  0  0  0
   -1.6910   -1.0930   -4.0950 H   0  0  0  0  0  0  0  0  0  0  0  0
    3.7000    6.3990    0.7500 H   0  0  0  0  0  0  0  0  0  0  0  0
    5.3590    5.7410    0.6290 H   0  0  0  0  0  0  0  0  0  0  0  0
    4.9530   -0.7950   -1.0310 H   0  0  0  0  0  0  0  0  0  0  0  0
    0.0290   -1.4030   -2.4130 H   0  0  0  0  0  0  0  0  0  0  0  0
    3.8730    5.4660   -1.5590 H   0  0  0  0  0  0  0  0  0  0  0  0
    4.0520   -1.7970    0.1320 H   0  0  0  0  0  0  0  0  0  0  0  0
    4.4570   -0.1080    1.9020 H   0  0  0  0  0  0  0  0  0  0  0  0
    3.3000    0.9900   -0.6990 H   0  0  0  0  0  0  0  0  0  0  0  0
    0.5810   -2.7430   -0.8290 H   0  0  0  0  0  0  0  0  0  0  0  0
    1.1310   -2.5870    0.8570 H   0  0  0  0  0  0  0  0  0  0  0  0
    2.1910   -0.7610    1.3700 H   0  0  0  0  0  0  0  0  0  0  0  0
   -2.5300   -4.5710    1.2960 H   0  0  0  0  0  0  0  0  0  0  0  0
    5.3580    0.8940    0.7390 H   0  0  0  0  0  0  0  0  0  0  0  0
  1 48  1  0  0  0  0
  1  2  1  0  0  0  0
  1 43  1  0  0  0  0
  1 46  1  0  0  0  0
  2  3  1  0  0  0  0
  2 51  1  0  0  0  0
  2 49  1  0  0  0  0
  3  4  1  0  0  0  0
  4  5  1  0  0  0  0
  4 38  2  0  0  0  0
  5 62  1  0  0  0  0
  5 59  1  0  0  0  0
  5  6  1  0  0  0  0
  6 63  1  0  0  0  0
  6  7  1  0  0  0  0
  6 69  1  0  0  0  0
  7  8  1  0  0  0  0
  7 64  1  0  0  0  0
  7 31  1  0  0  0  0
  8 67  1  0  0  0  0
  8  9  1  0  0  0  0
  9 10  1  0  0  0  0
  9 30  2  0  0  0  0
 10 27  1  0  0  0  0
 10 39  1  0  0  0  0
 10 11  1  0  0  0  0
 11 25  1  0  0  0  0
 11 12  1  0  0  0  0
 12 26  2  0  0  0  0
 12 13  1  0  0  0  0
 13 23  2  0  0  0  0
 13 14  1  0  0  0  0
 14 15  1  0  0  0  0
 14 55  1  0  0  0  0
 15 22  2  0  0  0  0
 15 16  1  0  0  0  0
 16 21  1  0  0  0  0
 16 17  2  0  0  0  0
 17 18  1  0  0  0  0
 18 19  1  0  0  0  0
 19 21  2  0  0  0  0
 19 20  1  0  0  0  0
 20 42  1  0  0  0  0
 20 40  1  0  0  0  0
 20 41  1  0  0  0  0
 21 44  1  0  0  0  0
 23 24  1  0  0  0  0
 23 52  1  0  0  0  0
 24 25  2  0  0  0  0
 24 56  1  0  0  0  0
 25 60  1  0  0  0  0
 27 28  1  0  0  0  0
 27 65  1  0  0  0  0
 27 66  1  0  0  0  0
 28 29  3  0  0  0  0
 29 68  1  0  0  0  0
 31 45  1  0  0  0  0
 31 47  1  0  0  0  0
 31 32  1  0  0  0  0
 32 50  1  0  0  0  0
 32 33  1  0  0  0  0
 32 36  1  0  0  0  0
 33 53  1  0  0  0  0
 33 54  1  0  0  0  0
 33 34  1  0  0  0  0
 34 57  1  0  0  0  0
 34 35  1  0  0  0  0
 34 58  1  0  0  0  0
 35 36  1  0  0  0  0
 35 61  1  0  0  0  0
 36 37  2  0  0  0  0
M  END
> <OPENEYE_ISO_SMILES>
CCOC(=O)CC[C@H](C[C@@H]1CCNC1=O)NC(=O)[C@H](CC#C)n2cccc(c2=O)NC(=O)c3cc(on3)C

> <OPENEYE_INCHI>
InChI=1S/C26H31N5O7/c1-4-7-21(31-13-6-8-19(26(31)36)29-24(34)20-14-16(3)38-30-20)25(35)28-18(9-10-22(32)37-5-2)15-17-11-12-27-23(17)33/h1,6,8,13-14,17-18,21H,5,7,9-12,15H2,2-3H3,(H,27,33)(H,28,35)(H,29,34)/t17-,18+,21-/m0/s1

> <OPENEYE_INCHIKEY>
WVFVHUYBPRBKRA-UEXGIBASSA-N

> <FORMULA>
C26H31N5O7

$$$$
