@<TRIPOS>MOLECULE
/home/pku/3cl/gett_pdb/5S3H/5S3H_mol2/ligand/5S3H_W1M.pdb
 18 19 0 0 0
SMALL
GASTEIGER

@<TRIPOS>ATOM
      1  N1         3.8800    8.9580  -12.8750 N.ar  501  W1M501     -0.1645
      2  C4         2.2790    9.3120  -11.0500 C.2   501  W1M501      0.2885
      3  C5         0.7750   10.0980   -9.2130 C.ar  501  W1M501      0.0738
      4  C6        -0.1930    9.0960   -9.2550 C.ar  501  W1M501      0.0166
      5  C7        -0.9840    8.8490   -8.1460 C.ar  501  W1M501      0.0014
      6  C8        -0.8300    9.6020   -6.9990 C.ar  501  W1M501      0.0020
      7  C10        0.9250   10.8640   -8.0600 C.ar  501  W1M501      0.0185
      8  O2         1.1170   12.3720   -5.7150 O.co2 501  W1M501     -0.8440
      9  C11        0.2080   11.5130   -5.7380 C.2   501  W1M501      0.1198
     10  O1        -0.6430   11.3470   -4.8220 O.co2 501  W1M501     -0.3036
     11  C9         0.1120   10.6240   -6.9510 C.ar  501  W1M501      0.0251
     12  N2         1.6020   10.2810  -10.3530 N.am  501  W1M501     -0.1741
     13  O          2.3990    8.1540  -10.6470 O.2   501  W1M501     -0.2663
     14  C3         2.9590    9.7510  -12.2920 C.ar  501  W1M501      0.1575
     15  C2         2.8570   11.0270  -12.9610 C.ar  501  W1M501      0.0458
     16  C1         3.7580   10.9630  -13.9760 C.ar  501  W1M501      0.0969
     17  N          4.3580    9.7180  -13.8950 N.ar  501  W1M501     -0.2472
     18  C          5.4180    9.1870  -14.7410 C.3   501  W1M501      0.1538
@<TRIPOS>UNITY_ATOM_ATTR
8 1
charge -1
@<TRIPOS>BOND
     1    18    17    1
     2    16    17   ar
     3    16    15   ar
     4    17     1   ar
     5    15    14   ar
     6     1    14   ar
     7    14     2    1
     8     2    13    2
     9     2    12   am
    10    12     3    1
    11     4     3   ar
    12     4     5   ar
    13     3     7   ar
    14     5     6   ar
    15     7    11   ar
    16     6    11   ar
    17    11     9    1
    18     9     8   ar
    19     9    10   ar
