@<TRIPOS>MOLECULE
/home/pku/3cl/gett_pdb/7M8O/7M8O_mol2/ligand/7M8O_YSM.pdb
 55 59 0 0 0
SMALL
GASTEIGER

@<TRIPOS>ATOM
      1  C1       -20.6410   -4.3480  -26.9850 C.ar  401  YSM401      0.2635
      2  F1       -18.9660   -6.2920  -36.9140 F     401  YSM401     -0.2055
      3  N1       -20.3540   -4.5190  -25.6860 N.ar  401  YSM401     -0.2816
      4  C2       -18.9690   -4.7590  -25.2690 C.ar  401  YSM401      0.0675
      5  C3       -18.0730   -3.6870  -25.2340 C.ar  401  YSM401      0.0514
      6  N3       -24.6540   -3.7200  -21.9160 N.ar  401  YSM401     -0.2746
      7  O3       -26.9600   -3.8040  -21.4720 O.2   401  YSM401     -0.2467
      8  C4       -16.3400   -5.0410  -24.4820 C.ar  401  YSM401      0.0277
      9  O4       -21.8010   -5.6900  -32.0400 O.3   401  YSM401     -0.4873
     10  C5       -17.1990   -6.1450  -24.4940 C.ar  401  YSM401     -0.0416
     11  C6       -18.5230   -6.0130  -24.8860 C.ar  401  YSM401     -0.0348
     12  C7       -21.3130   -4.4290  -24.7540 C.ar  401  YSM401      0.0212
     13  C8       -22.6370   -4.1730  -25.1040 C.ar  401  YSM401      0.0060
     14  C9       -23.7860   -4.0720  -24.0920 C.ar  401  YSM401      0.0640
     15  C10      -23.5920   -3.7960  -22.7420 C.ar  401  YSM401      0.2617
     16  C11      -25.1020   -4.2500  -24.5320 C.ar  401  YSM401      0.0193
     17  C12      -25.8990   -3.8960  -22.3710 C.ar  401  YSM401      0.3267
     18  C13      -22.9370   -4.0120  -26.4410 C.ar  401  YSM401     -0.0395
     19  C14      -21.9380   -4.0990  -27.3860 C.ar  401  YSM401      0.0477
     20  C15      -22.2800   -3.9130  -28.8600 C.ar  401  YSM401     -0.0078
     21  C16      -22.9760   -2.7840  -29.2810 C.ar  401  YSM401     -0.0353
     22  C17      -23.2850   -2.6220  -30.6320 C.ar  401  YSM401      0.0450
     23  C18      -22.9130   -3.5800  -31.5680 C.ar  401  YSM401     -0.0016
     24  C20      -20.4100   -5.6680  -32.2680 C.3   401  YSM401      0.1147
     25  C21      -20.1130   -6.5540  -33.4700 C.ar  401  YSM401     -0.0077
     26  C22      -20.3260   -7.9250  -33.3810 C.ar  401  YSM401     -0.0552
     27  C23      -20.0880   -8.7510  -34.4730 C.ar  401  YSM401     -0.0587
     28  C24      -19.6310   -8.1940  -35.6560 C.ar  401  YSM401     -0.0264
     29  C26      -19.6650   -5.9930  -34.6530 C.ar  401  YSM401     -0.0201
     30  C19      -22.2210   -4.7130  -31.1350 C.ar  401  YSM401      0.1229
     31  C25      -19.4200   -6.8220  -35.7440 C.ar  401  YSM401      0.1238
     32  C27      -21.9050   -4.8800  -29.7850 C.ar  401  YSM401     -0.0120
     33  N2       -16.7890   -3.8370  -24.8550 N.ar  401  YSM401     -0.2612
     34  N4       -26.1330   -4.1580  -23.6690 N.ar  401  YSM401     -0.3137
     35  O1       -19.6400   -4.4290  -27.9650 O.2   401  YSM401     -0.2667
     36  O2       -22.3140   -3.5980  -22.2160 O.2   401  YSM401     -0.2671
     37 CL1       -24.1630   -1.1640  -31.1460 Cl    401  YSM401     -0.0834
     38  H1       -18.3740   -2.8430  -25.4810 H     401  YSM401      0.0851
     39  H6       -24.5290   -3.5550  -21.0810 H     401  YSM401      0.1734
     40  H2       -15.4550   -5.1440  -24.2160 H     401  YSM401      0.0829
     41  H3       -16.8780   -6.9780  -24.2350 H     401  YSM401      0.0633
     42  H4       -19.0950   -6.7460  -24.8920 H     401  YSM401      0.0639
     43  H5       -21.0900   -4.5400  -23.8580 H     401  YSM401      0.0820
     44  H7       -25.2670   -4.4330  -25.4280 H     401  YSM401      0.0816
     45  H9       -23.8140   -3.8460  -26.7050 H     401  YSM401      0.0632
     46  H10      -23.2350   -2.1390  -28.6630 H     401  YSM401      0.0638
     47  H11      -23.1210   -3.4680  -32.4680 H     401  YSM401      0.0669
     48  H13      -20.1210   -4.7600  -32.4490 H     401  YSM401      0.0748
     49  H12      -19.9440   -6.0060  -31.4870 H     401  YSM401      0.0748
     50  H14      -20.6310   -8.2930  -32.5830 H     401  YSM401      0.0621
     51  H15      -20.2330   -9.6680  -34.4110 H     401  YSM401      0.0619
     52  H16      -19.4640   -8.7380  -36.3920 H     401  YSM401      0.0646
     53  H17      -19.5300   -5.0760  -34.7190 H     401  YSM401      0.0650
     54  H18      -21.4440   -5.6380  -29.5040 H     401  YSM401      0.0660
     55  H8       -26.9390   -4.2670  -23.9480 H     401  YSM401      0.1698
@<TRIPOS>BOND
     1     2    31    1
     2    52    28    1
     3    31    28   ar
     4    31    29   ar
     5    28    27   ar
     6    53    29    1
     7    29    25   ar
     8    27    51    1
     9    27    26   ar
    10    25    26   ar
    11    25    24    1
    12    26    50    1
    13    47    23    1
    14    48    24    1
    15    24     9    1
    16    24    49    1
    17     9    30    1
    18    23    30   ar
    19    23    22   ar
    20    37    22    1
    21    30    32   ar
    22    22    21   ar
    23    32    54    1
    24    32    20   ar
    25    21    20   ar
    26    21    46    1
    27    20    19    1
    28    35     1    2
    29    19     1   ar
    30    19    18   ar
    31     1     3   ar
    32    45    18    1
    33    18    13   ar
    34     3     4    1
    35     3    12   ar
    36    38     5    1
    37    44    16    1
    38     4     5   ar
    39     4    11   ar
    40     5    33   ar
    41    13    12   ar
    42    13    14    1
    43    42    11    1
    44    11    10   ar
    45    33     8   ar
    46    12    43    1
    47    16    14   ar
    48    16    34   ar
    49    10     8   ar
    50    10    41    1
    51     8    40    1
    52    14    15   ar
    53    55    34    1
    54    34    17   ar
    55    15    36    2
    56    15     6   ar
    57    17     6   ar
    58    17     7    2
    59     6    39    1
