@<TRIPOS>MOLECULE
/home/pku/3cl/gett_pdb/5SS7/5SS7_mol2/ligand/5SS7_RL9.pdb
 35 37 0 0 0
SMALL
GASTEIGER

@<TRIPOS>ATOM
      1  C19      -23.0880    2.2780   13.3570 C.ar  201  RL9201      0.0027
      2  C20      -23.5220    3.5950   13.2770 C.ar  201  RL9201     -0.0366
      3  C21      -23.5190    4.0810   14.5970 C.ar  201  RL9201      0.0004
      4  C22      -23.8240    5.3240   15.1640 C.ar  201  RL9201     -0.0405
      5  C23      -22.6340    8.9750   19.3040 C.ar  201  RL9201     -0.0455
      6  C10      -25.0190    8.0370   19.2550 C.3   201  RL9201      0.0399
      7  C16      -22.9800    3.2300   16.7820 C.ar  201  RL9201     -0.0371
      8  C17      -23.0880    3.0450   15.3970 C.ar  201  RL9201      0.0465
      9  C15      -23.3030    4.4550   17.3440 C.ar  201  RL9201     -0.0477
     10  C14      -23.7070    5.5110   16.5440 C.ar  201  RL9201      0.0374
     11  C12      -24.1020    6.8510   17.1810 C.2   201  RL9201      0.2444
     12  C02      -20.2750    9.8740   19.3370 C.2   201  RL9201      0.0717
     13  C04      -21.7680   10.0140   19.6190 C.ar  201  RL9201     -0.0022
     14  C05      -22.2500   11.1830   20.1900 C.ar  201  RL9201     -0.0502
     15  C06      -23.6010   11.3200   20.4480 C.ar  201  RL9201     -0.0255
     16  C07      -24.4640   10.2870   20.1370 C.ar  201  RL9201      0.1281
     17  C09      -23.9870    9.1150   19.5730 C.ar  201  RL9201      0.0054
     18  F08      -25.7970   10.4180   20.3920 F     201  RL9201     -0.2051
     19  N11      -24.5480    6.8450   18.5680 N.am  201  RL9201     -0.3071
     20  N18      -22.8410    1.9850   14.6170 N.ar  201  RL9201     -0.3606
     21  O01      -19.7460    8.7330   19.3000 O.co2 201  RL9201     -0.5446
     22  O03      -19.5760   10.9030   19.1430 O.co2 201  RL9201     -0.5446
     23  O13      -24.0930    7.8530   16.5490 O.2   201  RL9201     -0.2702
     24 H191      -22.9670    1.6010   12.5260 H     201  RL9201      0.0807
     25 H201      -23.8160    4.1350   12.3860 H     201  RL9201      0.0638
     26 H221      -24.2140    6.1300   14.5380 H     201  RL9201      0.0632
     27 H231      -22.2490    8.0630   18.8620 H     201  RL9201      0.0628
     28 H102      -25.5450    7.7410   20.1590 H     201  RL9201      0.0513
     29 H101      -25.7590    8.5060   18.6250 H     201  RL9201      0.0513
     30 H161      -22.6490    2.4160   17.4120 H     201  RL9201      0.0638
     31 H151      -23.2440    4.5900   18.4140 H     201  RL9201      0.0626
     32 H051      -21.5740   11.9950   20.4310 H     201  RL9201      0.0625
     33 H061      -23.9840   12.2310   20.8920 H     201  RL9201      0.0646
     34 H111      -24.5750    5.9720   19.0520 H     201  RL9201      0.1493
     35 H181      -22.5120    1.0970   14.9400 H     201  RL9201      0.1653
@<TRIPOS>UNITY_ATOM_ATTR
21 1
charge -1
@<TRIPOS>BOND
     1    25     2    1
     2    24     1    1
     3     2     1   ar
     4     2     3   ar
     5     1    20   ar
     6    26     4    1
     7     3     4   ar
     8     3     8   ar
     9    20    35    1
    10    20     8   ar
    11     4    10   ar
    12     8     7   ar
    13    10    11    1
    14    10     9   ar
    15    23    11    2
    16     7     9   ar
    17     7    30    1
    18    11    19   am
    19     9    31    1
    20    19    34    1
    21    19     6    1
    22    29     6    1
    23    27     5    1
    24    22    12   ar
    25     6    17    1
    26     6    28    1
    27    21    12   ar
    28     5    17   ar
    29     5    13   ar
    30    12    13    1
    31    17    16   ar
    32    13    14   ar
    33    16    18    1
    34    16    15   ar
    35    14    32    1
    36    14    15   ar
    37    15    33    1
