QWO
  -OEChem-02242320033D

 52 56  0     1  0  0  0  0  0999 V2000
    2.5740    4.0160   -0.3820 C   0  0  0  0  0  0  0  0  0  0  0  0
    1.2150    1.9220   -0.3360 C   0  0  0  0  0  0  0  0  0  0  0  0
    0.3710    0.7930   -0.3330 C   0  0  0  0  0  0  0  0  0  0  0  0
   -1.0490    0.9330   -0.6960 C   0  0  0  0  0  0  0  0  0  0  0  0
   -3.2680   -0.0060   -1.0550 C   0  0  2  0  0  0  0  0  0  0  0  0
   -4.1030    0.2550    0.1810 C   0  0  0  0  0  0  0  0  0  0  0  0
   -3.8760    1.0980    1.2560 C   0  0  0  0  0  0  0  0  0  0  0  0
    2.5620    1.7960    0.0060 C   0  0  0  0  0  0  0  0  0  0  0  0
   -3.0390   -2.5070   -1.0940 C   0  0  0  0  0  0  0  0  0  0  0  0
   -3.8090   -1.3300   -1.6350 C   0  0  1  0  0  0  0  0  0  0  0  0
   -5.2650   -1.3450   -1.1250 C   0  0  0  0  0  0  0  0  0  0  0  0
   -5.2500   -0.5150    0.1410 C   0  0  0  0  0  0  0  0  0  0  0  0
   -6.1700   -0.4380    1.1790 C   0  0  0  0  0  0  0  0  0  0  0  0
   -5.9390    0.4080    2.2520 C   0  0  0  0  0  0  0  0  0  0  0  0
   -4.7910    1.1750    2.2880 C   0  0  0  0  0  0  0  0  0  0  0  0
    3.0520    0.5120    0.3530 C   0  0  0  0  0  0  0  0  0  0  0  0
    5.0490   -0.7720    0.3610 C   0  0  0  0  0  0  0  0  0  0  0  0
    7.0800   -2.1120    0.2480 C   0  0  0  0  0  0  0  0  0  0  0  0
    8.0630   -2.6910    1.2670 C   0  0  0  0  0  0  0  0  0  0  0  0
    8.5870   -2.0060    0.0040 C   0  0  0  0  0  0  0  0  0  0  0  0
    2.2130   -0.5870    0.3500 C   0  0  0  0  0  0  0  0  0  0  0  0
    0.8810   -0.4580    0.0130 C   0  0  0  0  0  0  0  0  0  0  0  0
   -1.8560   -0.1460   -0.6930 N   0  0  0  0  0  0  0  0  0  0  0  0
    3.2260    2.9670   -0.0460 N   0  0  0  0  0  0  0  0  0  0  0  0
    4.3920    0.3550    0.7000 N   0  0  0  0  0  0  0  0  0  0  0  0
    6.3670   -0.8870    0.6160 N   0  0  0  0  0  0  0  0  0  0  0  0
   -3.4500   -3.1050   -0.1290 O   0  0  0  0  0  0  0  0  0  0  0  0
   -7.2990   -1.1940    1.1410 O   0  0  0  0  0  0  0  0  0  0  0  0
    4.4510   -1.6850   -0.1760 O   0  0  0  0  0  0  0  0  0  0  0  0
   -1.4940    2.0240   -0.9990 O   0  0  0  0  0  0  0  0  0  0  0  0
   -1.8950   -2.8890   -1.6840 O   0  0  0  0  0  0  0  0  0  0  0  0
    0.8910    3.6150   -0.7000 S   0  0  0  0  0  0  0  0  0  0  0  0
    2.9960    5.0070   -0.4540 H   0  0  0  0  0  0  0  0  0  0  0  0
   -3.3960    0.8030   -1.7740 H   0  0  0  0  0  0  0  0  0  0  0  0
   -2.9800    1.7000    1.2860 H   0  0  0  0  0  0  0  0  0  0  0  0
   -3.7770   -1.3160   -2.7250 H   0  0  0  0  0  0  0  0  0  0  0  0
   -5.9300   -0.8970   -1.8630 H   0  0  0  0  0  0  0  0  0  0  0  0
   -5.5780   -2.3660   -0.9050 H   0  0  0  0  0  0  0  0  0  0  0  0
   -6.6550    0.4670    3.0590 H   0  0  0  0  0  0  0  0  0  0  0  0
   -4.6080    1.8340    3.1240 H   0  0  0  0  0  0  0  0  0  0  0  0
    6.5190   -2.8160   -0.3670 H   0  0  0  0  0  0  0  0  0  0  0  0
    8.1790   -2.1600    2.2120 H   0  0  0  0  0  0  0  0  0  0  0  0
    8.1490   -3.7760    1.3240 H   0  0  0  0  0  0  0  0  0  0  0  0
    9.0170   -2.6400   -0.7710 H   0  0  0  0  0  0  0  0  0  0  0  0
    9.0470   -1.0240    0.1170 H   0  0  0  0  0  0  0  0  0  0  0  0
    2.6040   -1.5580    0.6170 H   0  0  0  0  0  0  0  0  0  0  0  0
    0.2360   -1.3230    0.0160 H   0  0  0  0  0  0  0  0  0  0  0  0
   -1.5010   -1.0160   -0.4520 H   0  0  0  0  0  0  0  0  0  0  0  0
    4.8530    1.0580    1.1850 H   0  0  0  0  0  0  0  0  0  0  0  0
    6.8430   -0.1580    1.0440 H   0  0  0  0  0  0  0  0  0  0  0  0
   -7.2040   -2.0640    1.5530 H   0  0  0  0  0  0  0  0  0  0  0  0
   -1.4360   -3.6490   -1.3000 H   0  0  0  0  0  0  0  0  0  0  0  0
  9 27  2  0  0  0  0
 10 11  1  0  0  0  0
 11 12  1  0  0  0  0
 12 13  2  0  0  0  0
 13 28  1  0  0  0  0
 13 14  1  0  0  0  0
 14 15  2  0  0  0  0
  7 15  1  0  0  0  0
  6  7  2  0  0  0  0
  5  6  1  0  0  0  0
  5 23  1  0  0  0  0
  4 23  1  0  0  0  0
  2  3  2  0  0  0  0
  2 32  1  0  0  0  0
  1 32  1  0  0  0  0
  1 24  2  0  0  0  0
  8 24  1  0  0  0  0
  8 16  2  0  0  0  0
 17 25  1  0  0  0  0
 18 26  1  0  0  0  0
 18 19  1  0  0  0  0
 19 20  1  0  0  0  0
 17 26  1  0  0  0  0
 17 29  2  0  0  0  0
 16 25  1  0  0  0  0
 16 21  1  0  0  0  0
 21 22  2  0  0  0  0
  3  4  1  0  0  0  0
  4 30  2  0  0  0  0
  9 10  1  0  0  0  0
  9 31  1  0  0  0  0
  5 10  1  0  0  0  0
  6 12  1  0  0  0  0
  3 22  1  0  0  0  0
  2  8  1  0  0  0  0
 18 20  1  0  0  0  0
  1 33  1  0  0  0  0
  5 34  1  0  0  0  0
  7 35  1  0  0  0  0
 10 36  1  0  0  0  0
 11 37  1  0  0  0  0
 11 38  1  0  0  0  0
 14 39  1  0  0  0  0
 15 40  1  0  0  0  0
 18 41  1  0  0  0  0
 19 42  1  0  0  0  0
 19 43  1  0  0  0  0
 20 44  1  0  0  0  0
 20 45  1  0  0  0  0
 21 46  1  0  0  0  0
 22 47  1  0  0  0  0
 23 48  1  0  0  0  0
 25 49  1  0  0  0  0
 26 50  1  0  0  0  0
 28 51  1  0  0  0  0
 31 52  1  0  0  0  0
M  END
> <OPENEYE_ISO_SMILES>
c1cc2c(c(c1)O)C[C@@H]([C@@H]2NC(=O)c3ccc(c4c3scn4)NC(=O)NC5CC5)C(=O)O

> <OPENEYE_INCHI>
InChI=1S/C22H20N4O5S/c27-16-3-1-2-11-13(16)8-14(21(29)30)17(11)26-20(28)12-6-7-15(18-19(12)32-9-23-18)25-22(31)24-10-4-5-10/h1-3,6-7,9-10,14,17,27H,4-5,8H2,(H,26,28)(H,29,30)(H2,24,25,31)/t14-,17+/m0/s1

> <OPENEYE_INCHIKEY>
HUIMCJCWKPGPKG-WMLDXEAASA-N

> <FORMULA>
C22H20N4O5S

$$$$
