42J
  -OEChem-02242320003D

 20 20  0     0  0  0  0  0  0999 V2000
   -1.9290   -1.9250    0.0030 Cl  0  0  0  0  0  0  0  0  0  0  0  0
   -0.8380   -0.5800   -0.1220 C   0  0  0  0  0  0  0  0  0  0  0  0
   -1.3160    0.7140   -0.0010 C   0  0  0  0  0  0  0  0  0  0  0  0
   -3.0070    0.9930    0.2760 Cl  0  0  0  0  0  0  0  0  0  0  0  0
   -0.4450    1.7840   -0.1010 C   0  0  0  0  0  0  0  0  0  0  0  0
    0.9010    1.5620   -0.3210 C   0  0  0  0  0  0  0  0  0  0  0  0
    0.5110   -0.8010   -0.3360 C   0  0  0  0  0  0  0  0  0  0  0  0
    1.3780    0.2700   -0.4410 C   0  0  0  0  0  0  0  0  0  0  0  0
    2.8470    0.0290   -0.6820 C   0  0  0  0  0  0  0  0  0  0  0  0
    3.5680   -0.1020    0.6610 C   0  0  0  0  0  0  0  0  0  0  0  0
    4.9990   -0.3370    0.4270 N   0  0  0  0  0  0  0  0  0  0  0  0
   -0.8180    2.7930   -0.0070 H   0  0  0  0  0  0  0  0  0  0  0  0
    1.5810    2.3980   -0.3990 H   0  0  0  0  0  0  0  0  0  0  0  0
    0.8850   -1.8100   -0.4260 H   0  0  0  0  0  0  0  0  0  0  0  0
    2.9750   -0.8890   -1.2550 H   0  0  0  0  0  0  0  0  0  0  0  0
    3.2660    0.8670   -1.2390 H   0  0  0  0  0  0  0  0  0  0  0  0
    3.4400    0.8160    1.2340 H   0  0  0  0  0  0  0  0  0  0  0  0
    3.1490   -0.9400    1.2180 H   0  0  0  0  0  0  0  0  0  0  0  0
    5.3970    0.3940   -0.1440 H   0  0  0  0  0  0  0  0  0  0  0  0
    5.4990   -0.4270    1.2990 H   0  0  0  0  0  0  0  0  0  0  0  0
  3  4  1  0  0  0  0
  3  5  2  0  0  0  0
  2  3  1  0  0  0  0
  5  6  1  0  0  0  0
  1  2  1  0  0  0  0
  2  7  2  0  0  0  0
  6  8  2  0  0  0  0
  7  8  1  0  0  0  0
  8  9  1  0  0  0  0
 10 11  1  0  0  0  0
  9 10  1  0  0  0  0
  5 12  1  0  0  0  0
  6 13  1  0  0  0  0
  7 14  1  0  0  0  0
  9 15  1  0  0  0  0
  9 16  1  0  0  0  0
 10 17  1  0  0  0  0
 10 18  1  0  0  0  0
 11 19  1  0  0  0  0
 11 20  1  0  0  0  0
M  END
> <OPENEYE_ISO_SMILES>
c1cc(c(cc1CCN)Cl)Cl

> <OPENEYE_INCHI>
InChI=1S/C8H9Cl2N/c9-7-2-1-6(3-4-11)5-8(7)10/h1-2,5H,3-4,11H2

> <OPENEYE_INCHIKEY>
MQPUAVYKVIHUJP-UHFFFAOYSA-N

> <FORMULA>
C8H9Cl2N

$$$$
