RXE
  -OEChem-02242320043D

 57 59  0     0  0  0  0  0  0999 V2000
  -14.0500    0.9320   -0.0040 C   0  0  0  0  0  0  0  0  0  0  0  0
  -13.2220    2.0010   -0.2920 C   0  0  0  0  0  0  0  0  0  0  0  0
  -11.9640    1.7790   -0.8190 C   0  0  0  0  0  0  0  0  0  0  0  0
  -11.5320    0.4870   -1.0580 C   0  0  0  0  0  0  0  0  0  0  0  0
  -12.3580   -0.5830   -0.7700 C   0  0  0  0  0  0  0  0  0  0  0  0
  -13.6180   -0.3620   -0.2430 C   0  0  0  0  0  0  0  0  0  0  0  0
  -10.1600    0.2460   -1.6330 C   0  0  0  0  0  0  0  0  0  0  0  0
   -9.1490    0.1000   -0.4950 C   0  0  0  0  0  0  0  0  0  0  0  0
   -6.7580   -0.2940   -0.2320 C   0  0  0  0  0  0  0  0  0  0  0  0
   -5.3860   -0.5350   -0.8070 C   0  0  0  0  0  0  0  0  0  0  0  0
   -4.3750   -0.6810    0.3310 C   0  0  0  0  0  0  0  0  0  0  0  0
   -3.0030   -0.9220   -0.2430 C   0  0  0  0  0  0  0  0  0  0  0  0
   -0.6130   -1.3160    0.0190 C   0  0  0  0  0  0  0  0  0  0  0  0
    0.3990   -1.4620    1.1580 C   0  0  0  0  0  0  0  0  0  0  0  0
    1.7920   -1.7070    0.5740 C   0  0  0  0  0  0  0  0  0  0  0  0
    2.8040   -1.8520    1.7120 C   0  0  0  0  0  0  0  0  0  0  0  0
    4.7280   -3.2970    0.9560 C   0  0  0  0  0  0  0  0  0  0  0  0
    6.1670   -1.8130    0.2840 C   0  0  0  0  0  0  0  0  0  0  0  0
    5.0290   -1.1210    0.7290 C   0  0  0  0  0  0  0  0  0  0  0  0
    4.9940    0.2670    0.6720 C   0  0  0  0  0  0  0  0  0  0  0  0
    6.0800    0.9610    0.1780 C   0  0  0  0  0  0  0  0  0  0  0  0
    7.2080    0.2810   -0.2630 C   0  0  0  0  0  0  0  0  0  0  0  0
    7.2590   -1.0950   -0.2150 C   0  0  0  0  0  0  0  0  0  0  0  0
   -7.8150   -0.1340   -1.0540 N   0  0  0  0  0  0  0  0  0  0  0  0
   -1.9460   -1.0820    0.5780 N   0  0  0  0  0  0  0  0  0  0  0  0
    4.1370   -2.0870    1.1530 N   0  0  0  0  0  0  0  0  0  0  0  0
    5.9150   -3.1370    0.4470 N   0  0  0  0  0  0  0  0  0  0  0  0
   -6.9120   -0.2430    0.9700 O   0  0  0  0  0  0  0  0  0  0  0  0
   -2.8490   -0.9730   -1.4460 O   0  0  0  0  0  0  0  0  0  0  0  0
    3.4630    1.2020    1.2690 Br  0  0  0  0  0  0  0  0  0  0  0  0
    6.0310    2.8490    0.1020 Br  0  0  0  0  0  0  0  0  0  0  0  0
    8.6850    1.2510   -0.9370 Br  0  0  0  0  0  0  0  0  0  0  0  0
    8.8000   -2.0090   -0.8190 Br  0  0  0  0  0  0  0  0  0  0  0  0
  -15.6280    1.2110    0.6650 Cl  0  0  0  0  0  0  0  0  0  0  0  0
  -14.6560   -1.7050    0.1190 Cl  0  0  0  0  0  0  0  0  0  0  0  0
  -13.5590    3.0110   -0.1060 H   0  0  0  0  0  0  0  0  0  0  0  0
  -11.3180    2.6140   -1.0440 H   0  0  0  0  0  0  0  0  0  0  0  0
  -12.0210   -1.5920   -0.9580 H   0  0  0  0  0  0  0  0  0  0  0  0
  -10.1710   -0.6670   -2.2280 H   0  0  0  0  0  0  0  0  0  0  0  0
   -9.8780    1.0880   -2.2650 H   0  0  0  0  0  0  0  0  0  0  0  0
   -9.1380    1.0130    0.1010 H   0  0  0  0  0  0  0  0  0  0  0  0
   -9.4310   -0.7420    0.1370 H   0  0  0  0  0  0  0  0  0  0  0  0
   -5.3970   -1.4480   -1.4020 H   0  0  0  0  0  0  0  0  0  0  0  0
   -5.1040    0.3070   -1.4390 H   0  0  0  0  0  0  0  0  0  0  0  0
   -4.3640    0.2320    0.9270 H   0  0  0  0  0  0  0  0  0  0  0  0
   -4.6570   -1.5230    0.9630 H   0  0  0  0  0  0  0  0  0  0  0  0
   -0.3300   -0.4740   -0.6130 H   0  0  0  0  0  0  0  0  0  0  0  0
   -0.6240   -2.2290   -0.5760 H   0  0  0  0  0  0  0  0  0  0  0  0
    0.4100   -0.5490    1.7530 H   0  0  0  0  0  0  0  0  0  0  0  0
    0.1170   -2.3040    1.7890 H   0  0  0  0  0  0  0  0  0  0  0  0
    1.7810   -2.6200   -0.0210 H   0  0  0  0  0  0  0  0  0  0  0  0
    2.0750   -0.8650   -0.0580 H   0  0  0  0  0  0  0  0  0  0  0  0
    2.8150   -0.9390    2.3070 H   0  0  0  0  0  0  0  0  0  0  0  0
    2.5210   -2.6940    2.3440 H   0  0  0  0  0  0  0  0  0  0  0  0
    4.2780   -4.2500    1.1910 H   0  0  0  0  0  0  0  0  0  0  0  0
   -7.6920   -0.1750   -2.0150 H   0  0  0  0  0  0  0  0  0  0  0  0
   -2.0690   -1.0410    1.5390 H   0  0  0  0  0  0  0  0  0  0  0  0
 23 33  1  0  0  0  0
 22 32  1  0  0  0  0
 22 23  2  0  0  0  0
 18 23  1  0  0  0  0
 21 22  1  0  0  0  0
 18 27  1  0  0  0  0
 17 27  2  0  0  0  0
 18 19  2  0  0  0  0
 21 31  1  0  0  0  0
 20 21  2  0  0  0  0
 17 26  1  0  0  0  0
 19 20  1  0  0  0  0
 19 26  1  0  0  0  0
 20 30  1  0  0  0  0
 16 26  1  0  0  0  0
  2  3  2  0  0  0  0
  1  2  1  0  0  0  0
  3  4  1  0  0  0  0
 15 16  1  0  0  0  0
  1 34  1  0  0  0  0
 14 15  1  0  0  0  0
 13 14  1  0  0  0  0
  1  6  2  0  0  0  0
  4  7  1  0  0  0  0
  4  5  2  0  0  0  0
 13 25  1  0  0  0  0
 12 25  1  0  0  0  0
  7  8  1  0  0  0  0
  8 24  1  0  0  0  0
  5  6  1  0  0  0  0
  6 35  1  0  0  0  0
  9 24  1  0  0  0  0
 11 12  1  0  0  0  0
 10 11  1  0  0  0  0
 12 29  2  0  0  0  0
  9 10  1  0  0  0  0
  9 28  2  0  0  0  0
  2 36  1  0  0  0  0
  3 37  1  0  0  0  0
  5 38  1  0  0  0  0
  7 39  1  0  0  0  0
  7 40  1  0  0  0  0
  8 41  1  0  0  0  0
  8 42  1  0  0  0  0
 10 43  1  0  0  0  0
 10 44  1  0  0  0  0
 11 45  1  0  0  0  0
 11 46  1  0  0  0  0
 13 47  1  0  0  0  0
 13 48  1  0  0  0  0
 14 49  1  0  0  0  0
 14 50  1  0  0  0  0
 15 51  1  0  0  0  0
 15 52  1  0  0  0  0
 16 53  1  0  0  0  0
 16 54  1  0  0  0  0
 17 55  1  0  0  0  0
 24 56  1  0  0  0  0
 25 57  1  0  0  0  0
M  END
> <OPENEYE_ISO_SMILES>
c1cc(c(cc1CCNC(=O)CCC(=O)NCCCCn2cnc3c2c(c(c(c3Br)Br)Br)Br)Cl)Cl

> <OPENEYE_INCHI>
InChI=1S/C23H22Br4Cl2N4O2/c24-18-19(25)21(27)23-22(20(18)26)32-12-33(23)10-2-1-8-30-16(34)5-6-17(35)31-9-7-13-3-4-14(28)15(29)11-13/h3-4,11-12H,1-2,5-10H2,(H,30,34)(H,31,35)

> <OPENEYE_INCHIKEY>
HHGOOXRIHBVNFX-UHFFFAOYSA-N

> <FORMULA>
C23H22Br4Cl2N4O2

$$$$
