L46
  -OEChem-02242320033D

 31 31  0     0  0  0  0  0  0999 V2000
   -1.3850   -0.2550   -0.0330 C   0  0  0  0  0  0  0  0  0  0  0  0
   -0.2140    0.5290   -0.1710 C   0  0  0  0  0  0  0  0  0  0  0  0
    0.8470   -0.3160   -0.0480 C   0  0  0  0  0  0  0  0  0  0  0  0
   -0.9750   -1.5630    0.1710 C   0  0  0  0  0  0  0  0  0  0  0  0
   -2.7690    0.2270   -0.0890 C   0  0  0  0  0  0  0  0  0  0  0  0
    2.2630    0.0660   -0.1240 C   0  0  0  0  0  0  0  0  0  0  0  0
   -1.8800   -2.7510    0.3700 C   0  0  0  0  0  0  0  0  0  0  0  0
   -3.5100    0.2410   -1.4010 C   0  0  0  0  0  0  0  0  0  0  0  0
   -0.1180    2.7460    0.9350 C   0  0  0  0  0  0  0  0  0  0  0  0
   -0.1540    2.0160   -0.4080 C   0  0  0  0  0  0  0  0  0  0  0  0
    0.3660   -1.5910    0.1610 N   0  0  0  0  0  0  0  0  0  0  0  0
    3.2220   -0.8700    0.0150 N   0  0  0  0  0  0  0  0  0  0  0  0
   -3.3180    0.6130    0.9220 O   0  0  0  0  0  0  0  0  0  0  0  0
    2.5700    1.2280   -0.3120 O   0  0  0  0  0  0  0  0  0  0  0  0
    4.6340   -0.4890   -0.0610 C   0  0  0  0  0  0  0  0  0  0  0  0
   -2.1840   -3.1430   -0.6010 H   0  0  0  0  0  0  0  0  0  0  0  0
   -1.3490   -3.5250    0.9230 H   0  0  0  0  0  0  0  0  0  0  0  0
   -2.7630   -2.4450    0.9300 H   0  0  0  0  0  0  0  0  0  0  0  0
   -3.2790    1.1610   -1.9380 H   0  0  0  0  0  0  0  0  0  0  0  0
   -3.2030   -0.6160   -2.0010 H   0  0  0  0  0  0  0  0  0  0  0  0
   -4.5820    0.1880   -1.2140 H   0  0  0  0  0  0  0  0  0  0  0  0
    0.7620    2.4320    1.4970 H   0  0  0  0  0  0  0  0  0  0  0  0
   -0.0740    3.8220    0.7630 H   0  0  0  0  0  0  0  0  0  0  0  0
   -1.0160    2.5060    1.5040 H   0  0  0  0  0  0  0  0  0  0  0  0
    0.7450    2.2570   -0.9770 H   0  0  0  0  0  0  0  0  0  0  0  0
   -1.0340    2.3300   -0.9700 H   0  0  0  0  0  0  0  0  0  0  0  0
    0.9120   -2.3840    0.2800 H   0  0  0  0  0  0  0  0  0  0  0  0
    2.9770   -1.7970    0.1650 H   0  0  0  0  0  0  0  0  0  0  0  0
    4.8390   -0.0450   -1.0350 H   0  0  0  0  0  0  0  0  0  0  0  0
    4.8580    0.2350    0.7230 H   0  0  0  0  0  0  0  0  0  0  0  0
    5.2570   -1.3730    0.0730 H   0  0  0  0  0  0  0  0  0  0  0  0
  9 10  1  0  0  0  0
  2 10  1  0  0  0  0
  6 14  2  0  0  0  0
  5  8  1  0  0  0  0
  1  2  1  0  0  0  0
  2  3  2  0  0  0  0
  5 13  2  0  0  0  0
  1  5  1  0  0  0  0
  1  4  2  0  0  0  0
  3  6  1  0  0  0  0
  6 12  1  0  0  0  0
  3 11  1  0  0  0  0
  4 11  1  0  0  0  0
  4  7  1  0  0  0  0
 12 15  1  0  0  0  0
  7 16  1  0  0  0  0
  7 17  1  0  0  0  0
  7 18  1  0  0  0  0
  8 19  1  0  0  0  0
  8 20  1  0  0  0  0
  8 21  1  0  0  0  0
  9 22  1  0  0  0  0
  9 23  1  0  0  0  0
  9 24  1  0  0  0  0
 10 25  1  0  0  0  0
 10 26  1  0  0  0  0
 11 27  1  0  0  0  0
 12 28  1  0  0  0  0
 15 29  1  0  0  0  0
 15 30  1  0  0  0  0
 15 31  1  0  0  0  0
M  END
> <OPENEYE_ISO_SMILES>
CCc1c(c([nH]c1C(=O)NC)C)C(=O)C

> <OPENEYE_INCHI>
InChI=1S/C11H16N2O2/c1-5-8-9(7(3)14)6(2)13-10(8)11(15)12-4/h13H,5H2,1-4H3,(H,12,15)

> <OPENEYE_INCHIKEY>
LCSLEHAEHBSCSA-UHFFFAOYSA-N

> <FORMULA>
C11H16N2O2

$$$$
