P8U
  -OEChem-02242320033D

 78 80  0     1  0  0  0  0  0999 V2000
    1.1090   -0.8730   -0.0200 N   0  0  0  0  0  0  0  0  0  0  0  0
   -0.1300   -0.9550   -0.7980 C   0  0  1  0  0  0  0  0  0  0  0  0
   -0.3630   -2.4030   -1.2350 C   0  0  0  0  0  0  0  0  0  0  0  0
   -1.5550   -2.4610   -2.1920 C   0  0  0  0  0  0  0  0  0  0  0  0
   -1.2040   -1.7320   -3.4900 C   0  0  0  0  0  0  0  0  0  0  0  0
   -3.6510    0.0180    0.3420 C   0  0  1  0  0  0  0  0  0  0  0  0
   -4.6730    0.7920   -0.4930 C   0  0  0  0  0  0  0  0  0  0  0  0
   -4.0370    2.0850   -1.0070 C   0  0  1  0  0  0  0  0  0  0  0  0
   -5.0280    2.8690   -1.8390 C   0  0  0  0  0  0  0  0  0  0  0  0
    5.8650   -0.7850    0.2850 C   0  0  1  0  0  0  0  0  0  0  0  0
    7.2660   -0.5890   -0.2980 C   0  0  1  0  0  0  0  0  0  0  0  0
    8.2900    0.1570    0.5600 C   0  0  0  0  0  0  0  0  0  0  0  0
    7.7750    1.5670    0.8570 C   0  0  0  0  0  0  0  0  0  0  0  0
    8.7990    2.3140    1.7140 C   0  0  0  0  0  0  0  0  0  0  0  0
   10.1270    2.4040    0.9600 C   0  0  0  0  0  0  0  0  0  0  0  0
    2.2970   -0.7980   -0.6510 C   0  0  0  0  0  0  0  0  0  0  0  0
   -4.0070    4.4150   -0.4380 C   0  0  0  0  0  0  0  0  0  0  0  0
   -3.7010    3.0290    0.1720 C   0  0  0  0  0  0  0  0  0  0  0  0
   -4.3020   -1.2520    0.8950 C   0  0  1  0  0  0  0  0  0  0  0  0
    4.6830   -0.7390   -0.6860 C   0  0  0  0  0  0  0  0  0  0  0  0
    6.8220   -1.9740    0.1780 C   0  0  0  0  0  0  0  0  0  0  0  0
   10.6420    0.9940    0.6630 C   0  0  0  0  0  0  0  0  0  0  0  0
    9.6180    0.2480   -0.1950 C   0  0  0  0  0  0  0  0  0  0  0  0
   -1.8900   -3.9210   -2.5020 C   0  0  0  0  0  0  0  0  0  0  0  0
   -1.2870   -0.4940    0.0500 C   0  0  0  0  0  0  0  0  0  0  0  0
   -2.5080   -0.3460   -0.5000 N   0  0  0  0  0  0  0  0  0  0  0  0
   -4.9940    4.1680   -1.4950 N   0  0  0  0  0  0  0  0  0  0  0  0
    2.3380   -0.7050   -1.8620 O   0  0  0  0  0  0  0  0  0  0  0  0
   -5.7480    2.3950   -2.6910 O   0  0  0  0  0  0  0  0  0  0  0  0
   -3.3150   -2.0410    1.5620 O   0  0  0  0  0  0  0  0  0  0  0  0
   -1.1190   -0.2560    1.2270 O   0  0  0  0  0  0  0  0  0  0  0  0
    3.4400   -0.8250    0.0600 O   0  0  0  0  0  0  0  0  0  0  0  0
   -5.6090   -0.8000    2.0680 S   0  3  0  0  0  0  0  0  0  0  0  0
    1.0740   -0.8700    0.9490 H   0  0  0  0  0  0  0  0  0  0  0  0
   -0.0480   -0.3180   -1.6790 H   0  0  0  0  0  0  0  0  0  0  0  0
    0.5270   -2.7770   -1.7410 H   0  0  0  0  0  0  0  0  0  0  0  0
   -0.5690   -3.0180   -0.3590 H   0  0  0  0  0  0  0  0  0  0  0  0
   -2.4170   -1.9810   -1.7280 H   0  0  0  0  0  0  0  0  0  0  0  0
   -0.3910   -2.2560   -3.9930 H   0  0  0  0  0  0  0  0  0  0  0  0
   -2.0770   -1.7070   -4.1410 H   0  0  0  0  0  0  0  0  0  0  0  0
   -0.8920   -0.7120   -3.2620 H   0  0  0  0  0  0  0  0  0  0  0  0
   -3.3100    0.6410    1.1680 H   0  0  0  0  0  0  0  0  0  0  0  0
   -4.9890    0.1820   -1.3390 H   0  0  0  0  0  0  0  0  0  0  0  0
   -5.5380    1.0330    0.1240 H   0  0  0  0  0  0  0  0  0  0  0  0
   -3.1400    1.8640   -1.5860 H   0  0  0  0  0  0  0  0  0  0  0  0
    5.6720   -0.3810    1.2790 H   0  0  0  0  0  0  0  0  0  0  0  0
    7.3460   -0.4280   -1.3730 H   0  0  0  0  0  0  0  0  0  0  0  0
    8.4400   -0.3790    1.4960 H   0  0  0  0  0  0  0  0  0  0  0  0
    7.6250    2.1040   -0.0800 H   0  0  0  0  0  0  0  0  0  0  0  0
    6.8290    1.5030    1.3940 H   0  0  0  0  0  0  0  0  0  0  0  0
    8.4320    3.3180    1.9260 H   0  0  0  0  0  0  0  0  0  0  0  0
    8.9490    1.7770    2.6510 H   0  0  0  0  0  0  0  0  0  0  0  0
    9.9770    2.9410    0.0230 H   0  0  0  0  0  0  0  0  0  0  0  0
   10.8560    2.9360    1.5710 H   0  0  0  0  0  0  0  0  0  0  0  0
   -4.4250    5.0760    0.3210 H   0  0  0  0  0  0  0  0  0  0  0  0
   -3.1010    4.8500   -0.8590 H   0  0  0  0  0  0  0  0  0  0  0  0
   -4.3450    2.8280    1.0280 H   0  0  0  0  0  0  0  0  0  0  0  0
   -2.6500    2.9480    0.4490 H   0  0  0  0  0  0  0  0  0  0  0  0
   -4.7330   -1.8260    0.0740 H   0  0  0  0  0  0  0  0  0  0  0  0
    4.7080    0.1970   -1.2440 H   0  0  0  0  0  0  0  0  0  0  0  0
    4.7500   -1.5780   -1.3790 H   0  0  0  0  0  0  0  0  0  0  0  0
    7.2590   -2.3530    1.1020 H   0  0  0  0  0  0  0  0  0  0  0  0
    6.6090   -2.7240   -0.5840 H   0  0  0  0  0  0  0  0  0  0  0  0
   11.5880    1.0590    0.1250 H   0  0  0  0  0  0  0  0  0  0  0  0
   10.7920    0.4580    1.5990 H   0  0  0  0  0  0  0  0  0  0  0  0
    9.9840   -0.7570   -0.4060 H   0  0  0  0  0  0  0  0  0  0  0  0
    9.4680    0.7850   -1.1310 H   0  0  0  0  0  0  0  0  0  0  0  0
   -2.1410   -4.4400   -1.5770 H   0  0  0  0  0  0  0  0  0  0  0  0
   -2.7400   -3.9630   -3.1830 H   0  0  0  0  0  0  0  0  0  0  0  0
   -1.0280   -4.4010   -2.9660 H   0  0  0  0  0  0  0  0  0  0  0  0
   -2.6310   -0.4810   -1.4520 H   0  0  0  0  0  0  0  0  0  0  0  0
   -5.5500    4.8550   -1.8960 H   0  0  0  0  0  0  0  0  0  0  0  0
   -2.5840   -2.3190    0.9940 H   0  0  0  0  0  0  0  0  0  0  0  0
   -6.1380   -1.8870    2.8140 O   0  0  0  0  0  0  0  0  0  0  0  0
   -5.0430    0.2210    3.0450 O   0  0  0  0  0  0  0  0  0  0  0  0
   -6.7470   -0.1540    1.2910 O   0  0  0  0  0  0  0  0  0  0  0  0
   -4.6600    1.0010    2.6210 H   0  0  0  0  0  0  0  0  0  0  0  0
   -7.4940    0.1210    1.8410 H   0  0  0  0  0  0  0  0  0  0  0  0
  9 29  2  0  0  0  0
 10 21  1  0  0  0  0
 11 21  1  0  0  0  0
 10 11  1  0  0  0  0
 10 20  1  0  0  0  0
  9 27  1  0  0  0  0
  8  9  1  0  0  0  0
 17 27  1  0  0  0  0
 11 12  1  0  0  0  0
 20 32  1  0  0  0  0
 12 23  1  0  0  0  0
 12 13  1  0  0  0  0
 22 23  1  0  0  0  0
 16 28  2  0  0  0  0
 15 22  1  0  0  0  0
 16 32  1  0  0  0  0
  7  8  1  0  0  0  0
  8 18  1  0  0  0  0
  1 16  1  0  0  0  0
 17 18  1  0  0  0  0
 13 14  1  0  0  0  0
  6  7  1  0  0  0  0
 14 15  1  0  0  0  0
  4  5  1  0  0  0  0
  1  2  1  0  0  0  0
 19 33  1  0  0  0  0
  2 25  1  0  0  0  0
  2  3  1  0  0  0  0
  6 26  1  0  0  0  0
 25 26  1  0  0  0  0
  6 19  1  0  0  0  0
 25 31  2  0  0  0  0
  3  4  1  0  0  0  0
  4 24  1  0  0  0  0
 19 30  1  0  0  0  0
  1 34  1  0  0  0  0
  2 35  1  0  0  0  0
  3 36  1  0  0  0  0
  3 37  1  0  0  0  0
  4 38  1  0  0  0  0
  5 39  1  0  0  0  0
  5 40  1  0  0  0  0
  5 41  1  0  0  0  0
  6 42  1  0  0  0  0
  7 43  1  0  0  0  0
  7 44  1  0  0  0  0
  8 45  1  0  0  0  0
 10 46  1  0  0  0  0
 11 47  1  0  0  0  0
 12 48  1  0  0  0  0
 13 49  1  0  0  0  0
 13 50  1  0  0  0  0
 14 51  1  0  0  0  0
 14 52  1  0  0  0  0
 15 53  1  0  0  0  0
 15 54  1  0  0  0  0
 17 55  1  0  0  0  0
 17 56  1  0  0  0  0
 18 57  1  0  0  0  0
 18 58  1  0  0  0  0
 19 59  1  0  0  0  0
 20 60  1  0  0  0  0
 20 61  1  0  0  0  0
 21 62  1  0  0  0  0
 21 63  1  0  0  0  0
 22 64  1  0  0  0  0
 22 65  1  0  0  0  0
 23 66  1  0  0  0  0
 23 67  1  0  0  0  0
 24 68  1  0  0  0  0
 24 69  1  0  0  0  0
 24 70  1  0  0  0  0
 26 71  1  0  0  0  0
 27 72  1  0  0  0  0
 30 73  1  0  0  0  0
 33 74  2  0  0  0  0
 33 75  1  0  0  0  0
 33 76  1  0  0  0  0
 75 77  1  0  0  0  0
 76 78  1  0  0  0  0
M  CHG  1  33   1
M  END
> <OPENEYE_ISO_SMILES>
CC(C)C[C@@H](C(=O)N[C@@H](C[C@@H]1CCNC1=O)[C@@H](O)[S+](=O)(O)O)NC(=O)OC[C@H]2C[C@@H]2C3CCCCC3

> <OPENEYE_INCHI>
InChI=1S/C24H40N3O8S/c1-14(2)10-19(27-24(31)35-13-17-11-18(17)15-6-4-3-5-7-15)22(29)26-20(23(30)36(32,33)34)12-16-8-9-25-21(16)28/h14-20,23,30H,3-13H2,1-2H3,(H3-2,25,26,27,28,29,31,32,33,34)/q-1/p+2/t16-,17+,18+,19-,20-,23-/m0/s1

> <OPENEYE_INCHIKEY>
BNNIGFVXMNVYNU-MWOXCZGJSA-P

> <FORMULA>
C24H42N3O8S+

$$$$
