VHM
  -OEChem-02242320043D

 83 85  0     1  0  0  0  0  0999 V2000
    9.4840   -1.4040   -1.1200 C   0  0  0  0  0  0  0  0  0  0  0  0
   -0.4540   -3.0360    1.9160 C   0  0  0  0  0  0  0  0  0  0  0  0
    1.5930    1.6610    0.3590 C   0  0  2  0  0  0  0  0  0  0  0  0
    0.3700    0.8420    0.0360 C   0  0  0  0  0  0  0  0  0  0  0  0
    0.7640   -3.8660    1.5060 C   0  0  0  0  0  0  0  0  0  0  0  0
   -1.9420    0.2000    0.4580 C   0  0  2  0  0  0  0  0  0  0  0  0
   -3.2070    0.9530    0.7790 C   0  0  0  0  0  0  0  0  0  0  0  0
    0.5590   -4.4080    0.0900 C   0  0  0  0  0  0  0  0  0  0  0  0
   -5.6340    1.0830    0.9490 C   0  0  1  0  0  0  0  0  0  0  0  0
    0.3870   -3.2390   -0.8830 C   0  0  0  0  0  0  0  0  0  0  0  0
   -6.7990    0.4820    0.1600 C   0  0  0  0  0  0  0  0  0  0  0  0
    9.1730   -0.1490   -1.6090 C   0  0  0  0  0  0  0  0  0  0  0  0
   -6.5680    0.7000   -1.3370 C   0  0  2  0  0  0  0  0  0  0  0  0
   -7.7490    0.1280   -2.1560 C   0  0  0  0  0  0  0  0  0  0  0  0
   -7.2400   -1.2910   -2.4940 C   0  0  0  0  0  0  0  0  0  0  0  0
   -0.8300   -2.4080   -0.4730 C   0  0  0  0  0  0  0  0  0  0  0  0
   -5.3700   -0.0950   -1.8080 C   0  0  0  0  0  0  0  0  0  0  0  0
   -5.9240    0.9770    2.4470 C   0  0  0  0  0  0  0  0  0  0  0  0
    8.1550    0.5850   -1.0310 C   0  0  0  0  0  0  0  0  0  0  0  0
    1.4860    3.0280   -0.3190 C   0  0  0  0  0  0  0  0  0  0  0  0
    2.6590    3.9080    0.1180 C   0  0  0  0  0  0  0  0  0  0  0  0
    1.5210    2.8480   -1.8380 C   0  0  0  0  0  0  0  0  0  0  0  0
   -1.8430   -1.0370    1.3540 C   0  0  0  0  0  0  0  0  0  0  0  0
    7.4470    0.0650    0.0360 C   0  0  0  0  0  0  0  0  0  0  0  0
    7.7570   -1.1900    0.5250 C   0  0  0  0  0  0  0  0  0  0  0  0
    8.7760   -1.9250   -0.0520 C   0  0  0  0  0  0  0  0  0  0  0  0
    6.3380    0.8660    0.6670 C   0  0  0  0  0  0  0  0  0  0  0  0
   -0.6250   -1.8670    0.9430 C   0  0  0  0  0  0  0  0  0  0  0  0
    3.9850    1.2020    0.4480 C   0  0  0  0  0  0  0  0  0  0  0  0
    2.7890    0.9670   -0.1270 N   0  0  0  0  0  0  0  0  0  0  0  0
   -0.7840    1.0670    0.6930 N   0  0  0  0  0  0  0  0  0  0  0  0
   -4.4040    0.3510    0.6370 N   0  0  0  0  0  0  0  0  0  0  0  0
   -5.7750   -1.2000   -2.4570 N   0  0  0  0  0  0  0  0  0  0  0  0
   -4.2130    0.2200   -1.6280 O   0  0  0  0  0  0  0  0  0  0  0  0
   -6.1990   -0.3850    2.7840 O   0  0  0  0  0  0  0  0  0  0  0  0
    4.0720    1.9900    1.3690 O   0  0  0  0  0  0  0  0  0  0  0  0
    0.4250   -0.0190   -0.8170 O   0  0  0  0  0  0  0  0  0  0  0  0
   -3.1480    2.1010    1.1670 O   0  0  0  0  0  0  0  0  0  0  0  0
    5.0830    0.5640    0.0010 O   0  0  0  0  0  0  0  0  0  0  0  0
   10.2760   -1.9800   -1.5740 H   0  0  0  0  0  0  0  0  0  0  0  0
   -1.3460   -3.6620    1.8920 H   0  0  0  0  0  0  0  0  0  0  0  0
   -0.3080   -2.6500    2.9250 H   0  0  0  0  0  0  0  0  0  0  0  0
    1.6650    1.7960    1.4390 H   0  0  0  0  0  0  0  0  0  0  0  0
    1.6560   -3.2400    1.5300 H   0  0  0  0  0  0  0  0  0  0  0  0
    0.8860   -4.6990    2.1990 H   0  0  0  0  0  0  0  0  0  0  0  0
   -1.9580   -0.1090   -0.5870 H   0  0  0  0  0  0  0  0  0  0  0  0
    1.4260   -4.9990   -0.2020 H   0  0  0  0  0  0  0  0  0  0  0  0
   -0.3330   -5.0340    0.0660 H   0  0  0  0  0  0  0  0  0  0  0  0
   -5.5120    2.1310    0.6760 H   0  0  0  0  0  0  0  0  0  0  0  0
    1.2790   -2.6130   -0.8590 H   0  0  0  0  0  0  0  0  0  0  0  0
    0.2410   -3.6250   -1.8920 H   0  0  0  0  0  0  0  0  0  0  0  0
   -6.8650   -0.5860    0.3660 H   0  0  0  0  0  0  0  0  0  0  0  0
   -7.7290    0.9680    0.4580 H   0  0  0  0  0  0  0  0  0  0  0  0
    9.7260    0.2570   -2.4430 H   0  0  0  0  0  0  0  0  0  0  0  0
   -6.4310    1.7600   -1.5510 H   0  0  0  0  0  0  0  0  0  0  0  0
   -8.6560    0.0830   -1.5530 H   0  0  0  0  0  0  0  0  0  0  0  0
   -7.9120    0.7100   -3.0620 H   0  0  0  0  0  0  0  0  0  0  0  0
   -7.5920   -2.0050   -1.7500 H   0  0  0  0  0  0  0  0  0  0  0  0
   -7.5760   -1.5850   -3.4880 H   0  0  0  0  0  0  0  0  0  0  0  0
   -0.9520   -1.5760   -1.1660 H   0  0  0  0  0  0  0  0  0  0  0  0
   -1.7220   -3.0350   -0.4970 H   0  0  0  0  0  0  0  0  0  0  0  0
   -5.0580    1.3230    3.0110 H   0  0  0  0  0  0  0  0  0  0  0  0
   -6.7880    1.5930    2.6950 H   0  0  0  0  0  0  0  0  0  0  0  0
    7.9130    1.5660   -1.4130 H   0  0  0  0  0  0  0  0  0  0  0  0
    0.5490    3.5040   -0.0310 H   0  0  0  0  0  0  0  0  0  0  0  0
    3.5900    3.4900   -0.2670 H   0  0  0  0  0  0  0  0  0  0  0  0
    2.5240    4.9150   -0.2760 H   0  0  0  0  0  0  0  0  0  0  0  0
    2.7000    3.9450    1.2060 H   0  0  0  0  0  0  0  0  0  0  0  0
    0.6850    2.2210   -2.1490 H   0  0  0  0  0  0  0  0  0  0  0  0
    1.4450    3.8220   -2.3210 H   0  0  0  0  0  0  0  0  0  0  0  0
    2.4590    2.3720   -2.1260 H   0  0  0  0  0  0  0  0  0  0  0  0
   -1.7370   -0.7250    2.3930 H   0  0  0  0  0  0  0  0  0  0  0  0
   -2.7460   -1.6380    1.2440 H   0  0  0  0  0  0  0  0  0  0  0  0
    7.2040   -1.5970    1.3590 H   0  0  0  0  0  0  0  0  0  0  0  0
    9.0150   -2.9070    0.3270 H   0  0  0  0  0  0  0  0  0  0  0  0
    6.2590    0.6090    1.7230 H   0  0  0  0  0  0  0  0  0  0  0  0
    6.5550    1.9300    0.5670 H   0  0  0  0  0  0  0  0  0  0  0  0
    0.2670   -1.2410    0.9670 H   0  0  0  0  0  0  0  0  0  0  0  0
    2.7190    0.3380   -0.8620 H   0  0  0  0  0  0  0  0  0  0  0  0
   -0.8490    1.8020    1.3220 H   0  0  0  0  0  0  0  0  0  0  0  0
   -4.4520   -0.5670    0.3270 H   0  0  0  0  0  0  0  0  0  0  0  0
   -5.1760   -1.8540   -2.8500 H   0  0  0  0  0  0  0  0  0  0  0  0
   -6.3920   -0.5270    3.7210 H   0  0  0  0  0  0  0  0  0  0  0  0
  8 10  1  0  0  0  0
  5  8  1  0  0  0  0
 10 16  1  0  0  0  0
  2  5  1  0  0  0  0
 24 27  1  0  0  0  0
 27 39  1  0  0  0  0
 12 19  2  0  0  0  0
 19 24  1  0  0  0  0
  1 12  1  0  0  0  0
 24 25  2  0  0  0  0
  2 28  1  0  0  0  0
 16 28  1  0  0  0  0
  1 26  2  0  0  0  0
 25 26  1  0  0  0  0
 29 39  1  0  0  0  0
 29 36  2  0  0  0  0
 23 28  1  0  0  0  0
 29 30  1  0  0  0  0
  6 23  1  0  0  0  0
  3 30  1  0  0  0  0
  6 31  1  0  0  0  0
  4 31  1  0  0  0  0
  6  7  1  0  0  0  0
  3  4  1  0  0  0  0
  4 37  2  0  0  0  0
  3 20  1  0  0  0  0
  7 32  1  0  0  0  0
  7 38  2  0  0  0  0
 20 21  1  0  0  0  0
 20 22  1  0  0  0  0
  9 32  1  0  0  0  0
  9 18  1  0  0  0  0
 18 35  1  0  0  0  0
  9 11  1  0  0  0  0
 11 13  1  0  0  0  0
 13 17  1  0  0  0  0
 13 14  1  0  0  0  0
 17 34  2  0  0  0  0
 17 33  1  0  0  0  0
 14 15  1  0  0  0  0
 15 33  1  0  0  0  0
  1 40  1  0  0  0  0
  2 41  1  0  0  0  0
  2 42  1  0  0  0  0
  3 43  1  0  0  0  0
  5 44  1  0  0  0  0
  5 45  1  0  0  0  0
  6 46  1  0  0  0  0
  8 47  1  0  0  0  0
  8 48  1  0  0  0  0
  9 49  1  0  0  0  0
 10 50  1  0  0  0  0
 10 51  1  0  0  0  0
 11 52  1  0  0  0  0
 11 53  1  0  0  0  0
 12 54  1  0  0  0  0
 13 55  1  0  0  0  0
 14 56  1  0  0  0  0
 14 57  1  0  0  0  0
 15 58  1  0  0  0  0
 15 59  1  0  0  0  0
 16 60  1  0  0  0  0
 16 61  1  0  0  0  0
 18 62  1  0  0  0  0
 18 63  1  0  0  0  0
 19 64  1  0  0  0  0
 20 65  1  0  0  0  0
 21 66  1  0  0  0  0
 21 67  1  0  0  0  0
 21 68  1  0  0  0  0
 22 69  1  0  0  0  0
 22 70  1  0  0  0  0
 22 71  1  0  0  0  0
 23 72  1  0  0  0  0
 23 73  1  0  0  0  0
 25 74  1  0  0  0  0
 26 75  1  0  0  0  0
 27 76  1  0  0  0  0
 27 77  1  0  0  0  0
 28 78  1  0  0  0  0
 30 79  1  0  0  0  0
 31 80  1  0  0  0  0
 32 81  1  0  0  0  0
 33 82  1  0  0  0  0
 35 83  1  0  0  0  0
M  END
> <OPENEYE_ISO_SMILES>
CC(C)[C@@H](C(=O)N[C@@H](CC1CCCCC1)C(=O)N[C@@H](C[C@@H]2CCNC2=O)CO)NC(=O)OCc3ccccc3

> <OPENEYE_INCHI>
InChI=1S/C29H44N4O6/c1-19(2)25(33-29(38)39-18-21-11-7-4-8-12-21)28(37)32-24(15-20-9-5-3-6-10-20)27(36)31-23(17-34)16-22-13-14-30-26(22)35/h4,7-8,11-12,19-20,22-25,34H,3,5-6,9-10,13-18H2,1-2H3,(H,30,35)(H,31,36)(H,32,37)(H,33,38)/t22-,23-,24-,25-/m0/s1

> <OPENEYE_INCHIKEY>
LMWONCCZCSKLCL-QORCZRPOSA-N

> <FORMULA>
C29H44N4O6

$$$$
