GE6
  -OEChem-02242320023D

 47 48  0     1  0  0  0  0  0999 V2000
   -2.6200    3.2090   -0.3410 C   0  0  1  0  0  0  0  0  0  0  0  0
   -3.8970    2.3420   -0.4110 C   0  0  2  0  0  0  0  0  0  0  0  0
   -3.3740    0.9310   -0.7590 C   0  0  2  0  0  0  0  0  0  0  0  0
   -1.4770    2.2190   -0.6550 C   0  0  1  0  0  0  0  0  0  0  0  0
   -0.2450    2.5420    0.1930 C   0  0  0  0  0  0  0  0  0  0  0  0
   -4.1200   -0.1640    1.2930 C   0  0  0  0  0  0  0  0  0  0  0  0
   -4.8480   -1.1180    1.9640 C   0  0  0  0  0  0  0  0  0  0  0  0
   -5.6710   -1.9780   -0.0040 C   0  0  0  0  0  0  0  0  0  0  0  0
   -6.5090   -2.9580   -0.7190 C   0  0  0  0  0  0  0  0  0  0  0  0
   -4.9140   -0.9670   -0.7460 C   0  0  0  0  0  0  0  0  0  0  0  0
   -4.7950   -1.1600    3.3130 F   0  0  0  0  0  0  0  0  0  0  0  0
   -7.2090   -3.8790   -0.0260 N   0  0  0  0  0  0  0  0  0  0  0  0
   -4.1540   -0.0900   -0.0540 N   0  0  0  0  0  0  0  0  0  0  0  0
   -5.5990   -1.9950    1.3190 N   0  0  0  0  0  0  0  0  0  0  0  0
   -2.0040    0.9220   -0.3020 O   0  0  0  0  0  0  0  0  0  0  0  0
   -4.7720    2.8210   -1.4340 O   0  0  0  0  0  0  0  0  0  0  0  0
   -2.6680    4.2500   -1.3190 O   0  0  0  0  0  0  0  0  0  0  0  0
   -6.5690   -2.9350   -1.9330 O   0  0  0  0  0  0  0  0  0  0  0  0
   -4.9590   -0.9250   -1.9640 O   0  0  0  0  0  0  0  0  0  0  0  0
    0.8140    1.6430   -0.1430 O   0  0  0  0  0  0  0  0  0  0  0  0
    3.1560    0.4620    0.0320 O   0  0  0  0  0  0  0  0  0  0  0  0
    2.1050    1.6000    2.0250 O   0  0  0  0  0  0  0  0  0  0  0  0
    2.9900    3.0810    0.1830 O   0  0  0  0  0  0  0  0  0  0  0  0
    5.1830   -1.0840   -0.6100 O   0  0  0  0  0  0  0  0  0  0  0  0
    6.6130   -2.7350   -2.0740 O   0  0  0  0  0  0  0  0  0  0  0  0
    7.7320   -0.5960   -1.0320 O   0  0  0  0  0  0  0  0  0  0  0  0
    5.4050    0.7100    1.1510 O   0  0  0  0  0  0  0  0  0  0  0  0
    4.0390   -1.3270    1.7450 O   0  0  0  0  0  0  0  0  0  0  0  0
    6.9850   -2.5250    0.4140 O   0  0  0  0  0  0  0  0  0  0  0  0
    2.2630    1.6940    0.5570 P   0  0  2  0  0  0  0  0  0  0  0  0
    4.4660   -0.2880    0.5920 P   0  0  1  0  0  0  0  0  0  0  0  0
    6.6360   -1.7520   -0.7990 P   0  0  0  0  0  0  0  0  0  0  0  0
   -2.4980    3.6300    0.6570 H   0  0  0  0  0  0  0  0  0  0  0  0
   -4.4070    2.3340    0.5530 H   0  0  0  0  0  0  0  0  0  0  0  0
   -3.4180    0.7650   -1.8350 H   0  0  0  0  0  0  0  0  0  0  0  0
   -1.2260    2.2510   -1.7150 H   0  0  0  0  0  0  0  0  0  0  0  0
    0.0720    3.5670   -0.0030 H   0  0  0  0  0  0  0  0  0  0  0  0
   -0.4920    2.4340    1.2490 H   0  0  0  0  0  0  0  0  0  0  0  0
   -3.5170    0.5370    1.8500 H   0  0  0  0  0  0  0  0  0  0  0  0
   -7.1610   -3.8970    0.9420 H   0  0  0  0  0  0  0  0  0  0  0  0
   -7.7610   -4.5230   -0.4970 H   0  0  0  0  0  0  0  0  0  0  0  0
   -5.0830    3.7260   -1.2940 H   0  0  0  0  0  0  0  0  0  0  0  0
   -3.4040    4.8660   -1.2020 H   0  0  0  0  0  0  0  0  0  0  0  0
    3.1270    3.2110   -0.7650 H   0  0  0  0  0  0  0  0  0  0  0  0
    7.4570   -3.1730   -2.2480 H   0  0  0  0  0  0  0  0  0  0  0  0
    7.5660   -0.0480   -1.8120 H   0  0  0  0  0  0  0  0  0  0  0  0
    3.4230   -2.0120    1.4480 H   0  0  0  0  0  0  0  0  0  0  0  0
 22 30  2  0  0  0  0
 20 30  1  0  0  0  0
  5 20  1  0  0  0  0
  4 15  1  0  0  0  0
  4  5  1  0  0  0  0
  1  4  1  0  0  0  0
  3 15  1  0  0  0  0
  2 16  1  0  0  0  0
  1 17  1  0  0  0  0
 21 30  1  0  0  0  0
 23 30  1  0  0  0  0
 21 31  1  0  0  0  0
  1  2  1  0  0  0  0
  2  3  1  0  0  0  0
  3 13  1  0  0  0  0
 27 31  2  0  0  0  0
 29 32  2  0  0  0  0
 24 31  1  0  0  0  0
 28 31  1  0  0  0  0
  6 13  1  0  0  0  0
 10 13  1  0  0  0  0
 10 19  2  0  0  0  0
  6  7  2  0  0  0  0
 24 32  1  0  0  0  0
  8 10  1  0  0  0  0
 26 32  1  0  0  0  0
 25 32  1  0  0  0  0
  7 11  1  0  0  0  0
  7 14  1  0  0  0  0
  8 14  2  0  0  0  0
  8  9  1  0  0  0  0
  9 12  1  0  0  0  0
  9 18  2  0  0  0  0
  1 33  1  0  0  0  0
  2 34  1  0  0  0  0
  3 35  1  0  0  0  0
  4 36  1  0  0  0  0
  5 37  1  0  0  0  0
  5 38  1  0  0  0  0
  6 39  1  0  0  0  0
 12 40  1  0  0  0  0
 12 41  1  0  0  0  0
 16 42  1  0  0  0  0
 17 43  1  0  0  0  0
 23 44  1  0  0  0  0
 25 45  1  0  0  0  0
 26 46  1  0  0  0  0
 28 47  1  0  0  0  0
M  END
> <OPENEYE_ISO_SMILES>
c1c(nc(c(=O)n1[C@H]2[C@@H]([C@@H]([C@H](O2)CO[P@](=O)(O)O[P@@](=O)(O)OP(=O)(O)O)O)O)C(=O)N)F

> <OPENEYE_INCHI>
InChI=1S/C10H15FN3O15P3/c11-4-1-14(9(18)5(13-4)8(12)17)10-7(16)6(15)3(27-10)2-26-31(22,23)29-32(24,25)28-30(19,20)21/h1,3,6-7,10,15-16H,2H2,(H2,12,17)(H,22,23)(H,24,25)(H2,19,20,21)/t3-,6-,7-,10-/m1/s1

> <OPENEYE_INCHIKEY>
UUKPXXBDUCDZDA-KAFVXXCXSA-N

> <FORMULA>
C10H15FN3O15P3

$$$$
