@<TRIPOS>MOLECULE
/home/pku/3cl/gett_pdb/7WYL/7WYL_mol2/ligand/7WYL_G7L.pdb
 25 25 0 0 0
SMALL
GASTEIGER

@<TRIPOS>ATOM
      1  C01      -29.6330   18.3920   -5.6790 C.3   201  G7L201     -0.0405
      2  C02      -30.1450   18.3360   -7.1290 C.3   201  G7L201      0.0468
      3  C03      -29.7820   19.6070   -7.8420 C.2   201  G7L201      0.2195
      4  C04      -32.0160   20.5670   -7.1650 C.3   201  G7L201      0.0036
      5  C05      -30.3310   21.9450   -8.4720 C.3   201  G7L201      0.0629
      6  C06      -30.8310   21.9530   -9.9000 C.ar  201  G7L201      0.0962
      7  C07      -31.2420   21.5950  -12.3420 C.ar  201  G7L201      0.0074
      8  C08      -32.1870   22.3910  -11.6360 C.ar  201  G7L201      0.1510
      9  C09      -33.3770   23.1060  -12.3050 C.3   201  G7L201      0.4347
     10  F01      -34.4830   22.4130  -11.9630 F     201  G7L201     -0.1644
     11  F02      -33.2130   23.1260  -13.6750 F     201  G7L201     -0.1644
     12  F03      -33.4450   24.4170  -11.8960 F     201  G7L201     -0.1644
     13  N01      -30.7100   20.6900   -7.8250 N.am  201  G7L201     -0.2980
     14  N02      -31.9060   22.5880  -10.3290 N.ar  201  G7L201     -0.2384
     15  O01      -28.7190   19.7420   -8.3650 O.2   201  G7L201     -0.2753
     16  S01      -30.1090   21.1380  -11.1660 S.2   201  G7L201     -0.0784
     17  H1       -29.9520   19.2100   -5.2600 H     201  G7L201      0.0273
     18  H2       -28.6680   18.3920   -5.6490 H     201  G7L201      0.0273
     19  H3       -29.7430   17.5800   -7.5860 H     201  G7L201      0.0402
     20  H4       -32.4630   19.7660   -7.4800 H     201  G7L201      0.0429
     21  H5       -31.8890   20.5100   -6.2050 H     201  G7L201      0.0429
     22  H6       -32.5580   21.3440   -7.3730 H     201  G7L201      0.0429
     23  H7       -29.3650   22.0320   -8.4660 H     201  G7L201      0.0534
     24  H8       -30.7230   22.6890   -7.9880 H     201  G7L201      0.0534
     25  H9       -31.2440   21.3750  -13.2450 H     201  G7L201      0.0715
@<TRIPOS>BOND
     1    11     9    1
     2    25     7    1
     3     7     8   ar
     4     7    16   ar
     5     9    10    1
     6     9    12    1
     7     9     8    1
     8     8    14   ar
     9    16     6   ar
    10    14     6   ar
    11     6     5    1
    12     5    23    1
    13     5    24    1
    14     5    13    1
    15    15     3    2
    16     3    13   am
    17     3     2    1
    18    13     4    1
    19    19     2    1
    20    20     4    1
    21    22     4    1
    22     4    21    1
    23     2     1    1
    24     1    18    1
    25     1    17    1
