I2J
  -OEChem-02242320023D

 18 17  0     0  0  0  0  0  0999 V2000
   -2.3150    0.0340    0.5940 C   0  0  0  0  0  0  0  0  0  0  0  0
   -1.1340   -0.8890    0.2870 C   0  0  0  0  0  0  0  0  0  0  0  0
    1.1880   -0.8710   -0.3100 C   0  0  0  0  0  0  0  0  0  0  0  0
    2.3570    0.0710   -0.6070 C   0  0  0  0  0  0  0  0  0  0  0  0
    2.6950    0.8290    0.6050 N   0  0  0  0  0  0  0  0  0  0  0  0
    0.0220   -0.1010   -0.0070 O   0  0  0  0  0  0  0  0  0  0  0  0
   -2.6540    0.7790   -0.5770 O   0  0  0  0  0  0  0  0  0  0  0  0
   -3.1720   -0.5640    0.9050 H   0  0  0  0  0  0  0  0  0  0  0  0
   -2.0410    0.7200    1.3950 H   0  0  0  0  0  0  0  0  0  0  0  0
   -0.9320   -1.5210    1.1520 H   0  0  0  0  0  0  0  0  0  0  0  0
   -1.3750   -1.5150   -0.5720 H   0  0  0  0  0  0  0  0  0  0  0  0
    0.9940   -1.4960   -1.1810 H   0  0  0  0  0  0  0  0  0  0  0  0
    1.4380   -1.5020    0.5430 H   0  0  0  0  0  0  0  0  0  0  0  0
    3.2210   -0.5120   -0.9240 H   0  0  0  0  0  0  0  0  0  0  0  0
    2.0740    0.7620   -1.4010 H   0  0  0  0  0  0  0  0  0  0  0  0
    2.8990    0.2090    1.3740 H   0  0  0  0  0  0  0  0  0  0  0  0
    3.4650    1.4590    0.4340 H   0  0  0  0  0  0  0  0  0  0  0  0
   -3.3960    1.3870   -0.4550 H   0  0  0  0  0  0  0  0  0  0  0  0
  2  6  1  0  0  0  0
  1  2  1  0  0  0  0
  3  6  1  0  0  0  0
  3  4  1  0  0  0  0
  1  7  1  0  0  0  0
  4  5  1  0  0  0  0
  1  8  1  0  0  0  0
  1  9  1  0  0  0  0
  2 10  1  0  0  0  0
  2 11  1  0  0  0  0
  3 12  1  0  0  0  0
  3 13  1  0  0  0  0
  4 14  1  0  0  0  0
  4 15  1  0  0  0  0
  5 16  1  0  0  0  0
  5 17  1  0  0  0  0
  7 18  1  0  0  0  0
M  END
> <OPENEYE_ISO_SMILES>
C(COCCO)N

> <OPENEYE_INCHI>
InChI=1S/C4H11NO2/c5-1-3-7-4-2-6/h6H,1-5H2

> <OPENEYE_INCHIKEY>
GIAFURWZWWWBQT-UHFFFAOYSA-N

> <FORMULA>
C4H11NO2

$$$$
