PCA
  -OEChem-02242320033D

 16 16  0     1  0  0  0  0  0999 V2000
    0.7130    0.5310   -0.6330 N   0  0  0  0  0  0  0  0  0  0  0  0
   -0.3280    0.5390    0.4000 C   0  0  1  0  0  0  0  0  0  0  0  0
   -1.4550   -0.3680   -0.1400 C   0  0  0  0  0  0  0  0  0  0  0  0
   -1.2320   -0.2720   -1.6670 C   0  0  0  0  0  0  0  0  0  0  0  0
    0.2310    0.0820   -1.8070 C   0  0  0  0  0  0  0  0  0  0  0  0
    0.8760   -0.0190   -2.8290 O   0  0  0  0  0  0  0  0  0  0  0  0
    0.2140   -0.0150    1.6910 C   0  0  0  0  0  0  0  0  0  0  0  0
    1.1220   -0.8120    1.6720 O   0  0  0  0  0  0  0  0  0  0  0  0
   -0.3110    0.3740    2.8630 O   0  0  0  0  0  0  0  0  0  0  0  0
    1.6310    0.8100   -0.4890 H   0  0  0  0  0  0  0  0  0  0  0  0
   -0.7000    1.5520    0.5520 H   0  0  0  0  0  0  0  0  0  0  0  0
   -1.3310   -1.3930    0.2080 H   0  0  0  0  0  0  0  0  0  0  0  0
   -2.4350    0.0190    0.1360 H   0  0  0  0  0  0  0  0  0  0  0  0
   -1.4390   -1.2300   -2.1440 H   0  0  0  0  0  0  0  0  0  0  0  0
   -1.8570    0.5110   -2.0950 H   0  0  0  0  0  0  0  0  0  0  0  0
    0.0360    0.0180    3.6920 H   0  0  0  0  0  0  0  0  0  0  0  0
  1  2  1  0  0  0  0
  1  5  1  0  0  0  0
  1 10  1  0  0  0  0
  2  3  1  0  0  0  0
  2  7  1  0  0  0  0
  2 11  1  0  0  0  0
  3  4  1  0  0  0  0
  3 12  1  0  0  0  0
  3 13  1  0  0  0  0
  4  5  1  0  0  0  0
  4 14  1  0  0  0  0
  4 15  1  0  0  0  0
  5  6  2  0  0  0  0
  7  8  2  0  0  0  0
  7  9  1  0  0  0  0
  9 16  1  0  0  0  0
M  END
> <OPENEYE_ISO_SMILES>
C1CC(=O)N[C@@H]1C(=O)O

> <OPENEYE_INCHI>
InChI=1S/C5H7NO3/c7-4-2-1-3(6-4)5(8)9/h3H,1-2H2,(H,6,7)(H,8,9)/t3-/m0/s1

> <OPENEYE_INCHIKEY>
ODHCTXKNWHHXJC-VKHMYHEASA-N

> <FORMULA>
C5H7NO3

$$$$
