USZ
  -OEChem-02242320043D

 66 68  0     1  0  0  0  0  0999 V2000
   -2.0320    0.0410   -0.8760 N   0  0  0  0  0  0  0  0  0  0  0  0
   -0.9430   -0.6470   -0.4800 C   0  0  0  0  0  0  0  0  0  0  0  0
   -3.2510    0.0160   -0.0640 C   0  0  0  0  0  0  0  0  0  0  0  0
   -4.3260    0.8780   -0.7290 C   0  0  0  0  0  0  0  0  0  0  0  0
   -5.5790    0.8510    0.1070 C   0  0  0  0  0  0  0  0  0  0  0  0
   -6.5390   -0.1190   -0.1170 C   0  0  0  0  0  0  0  0  0  0  0  0
   -7.8790    0.8050    1.6430 C   0  0  0  0  0  0  0  0  0  0  0  0
    0.8020    0.7990   -1.4390 C   0  0  0  0  0  0  0  0  0  0  0  0
    1.7000    3.3620   -1.5800 C   0  0  0  0  0  0  0  0  0  0  0  0
    0.8640    1.4150   -2.6790 C   0  0  0  0  0  0  0  0  0  0  0  0
    3.8550   -0.2320    1.7200 C   0  0  0  0  0  0  0  0  0  0  0  0
    4.7760    0.3450    0.8650 C   0  0  0  0  0  0  0  0  0  0  0  0
    4.5580    0.3320   -0.5010 C   0  0  0  0  0  0  0  0  0  0  0  0
    6.0190    0.9900    1.4220 C   0  0  0  0  0  0  0  0  0  0  0  0
    6.8320   -0.0510    2.1930 C   0  0  0  0  0  0  0  0  0  0  0  0
   -8.6290   -1.0900    0.4330 F   0  0  0  0  0  0  0  0  0  0  0  0
   -7.6900   -0.1430    0.6510 C   0  0  0  0  0  0  0  0  0  0  0  0
   -6.9170    1.7700    1.8690 C   0  0  0  0  0  0  0  0  0  0  0  0
   -5.7670    1.7930    1.1010 C   0  0  0  0  0  0  0  0  0  0  0  0
   -0.9730   -1.2880    0.5490 O   0  0  0  0  0  0  0  0  0  0  0  0
    0.3100   -0.6210   -1.3160 C   0  0  1  0  0  0  0  0  0  0  0  0
    1.3220    2.7220   -2.7450 C   0  0  0  0  0  0  0  0  0  0  0  0
    1.6330    2.7430   -0.4180 N   0  0  0  0  0  0  0  0  0  0  0  0
    1.2020    1.5000   -0.3180 C   0  0  0  0  0  0  0  0  0  0  0  0
    1.3420   -1.4410   -0.6750 N   0  0  0  0  0  0  0  0  0  0  0  0
    1.1810   -2.7760   -0.5850 C   0  0  0  0  0  0  0  0  0  0  0  0
    2.2880   -3.6320   -0.0260 C   0  0  0  0  0  0  0  0  0  0  0  0
    1.9090   -5.1080   -0.1610 C   0  0  0  0  0  0  0  0  0  0  0  0
    0.1450   -3.2880   -0.9530 O   0  0  0  0  0  0  0  0  0  0  0  0
    2.4930   -0.8380   -0.1580 C   0  0  0  0  0  0  0  0  0  0  0  0
    3.4200   -0.2580   -1.0150 C   0  0  0  0  0  0  0  0  0  0  0  0
    6.8630    1.5480    0.2730 C   0  0  0  0  0  0  0  0  0  0  0  0
    5.6240    2.1290    2.3640 C   0  0  0  0  0  0  0  0  0  0  0  0
    2.7180   -0.8280    1.2120 C   0  0  0  0  0  0  0  0  0  0  0  0
   -2.0070    0.5570   -1.6970 H   0  0  0  0  0  0  0  0  0  0  0  0
   -3.6090   -1.0100    0.0220 H   0  0  0  0  0  0  0  0  0  0  0  0
   -3.0340    0.4080    0.9300 H   0  0  0  0  0  0  0  0  0  0  0  0
   -3.9670    1.9030   -0.8140 H   0  0  0  0  0  0  0  0  0  0  0  0
   -4.5430    0.4850   -1.7220 H   0  0  0  0  0  0  0  0  0  0  0  0
   -6.3900   -0.8570   -0.8910 H   0  0  0  0  0  0  0  0  0  0  0  0
   -8.7780    0.7870    2.2430 H   0  0  0  0  0  0  0  0  0  0  0  0
    2.0590    4.3800   -1.6230 H   0  0  0  0  0  0  0  0  0  0  0  0
    0.5620    0.8890   -3.5730 H   0  0  0  0  0  0  0  0  0  0  0  0
    4.0280   -0.2200    2.7860 H   0  0  0  0  0  0  0  0  0  0  0  0
    5.2790    0.7840   -1.1660 H   0  0  0  0  0  0  0  0  0  0  0  0
    7.1130   -0.8630    1.5220 H   0  0  0  0  0  0  0  0  0  0  0  0
    7.7310    0.4150    2.5960 H   0  0  0  0  0  0  0  0  0  0  0  0
    6.2310   -0.4480    3.0110 H   0  0  0  0  0  0  0  0  0  0  0  0
   -7.0620    2.5060    2.6450 H   0  0  0  0  0  0  0  0  0  0  0  0
   -5.0150    2.5470    1.2790 H   0  0  0  0  0  0  0  0  0  0  0  0
    0.0940   -1.0180   -2.3080 H   0  0  0  0  0  0  0  0  0  0  0  0
    1.3830    3.2330   -3.6940 H   0  0  0  0  0  0  0  0  0  0  0  0
    1.1610    1.0260    0.6520 H   0  0  0  0  0  0  0  0  0  0  0  0
    3.2090   -3.4410   -0.5780 H   0  0  0  0  0  0  0  0  0  0  0  0
    2.4390   -3.3900    1.0260 H   0  0  0  0  0  0  0  0  0  0  0  0
    0.9890   -5.2990    0.3900 H   0  0  0  0  0  0  0  0  0  0  0  0
    1.7590   -5.3500   -1.2140 H   0  0  0  0  0  0  0  0  0  0  0  0
    2.7100   -5.7270    0.2430 H   0  0  0  0  0  0  0  0  0  0  0  0
    3.2480   -0.2640   -2.0810 H   0  0  0  0  0  0  0  0  0  0  0  0
    6.2830    2.2890   -0.2760 H   0  0  0  0  0  0  0  0  0  0  0  0
    7.7620    2.0140    0.6760 H   0  0  0  0  0  0  0  0  0  0  0  0
    7.1440    0.7360   -0.3980 H   0  0  0  0  0  0  0  0  0  0  0  0
    5.0230    1.7320    3.1820 H   0  0  0  0  0  0  0  0  0  0  0  0
    6.5230    2.5960    2.7670 H   0  0  0  0  0  0  0  0  0  0  0  0
    5.0450    2.8710    1.8140 H   0  0  0  0  0  0  0  0  0  0  0  0
    1.9990   -1.2780    1.8810 H   0  0  0  0  0  0  0  0  0  0  0  0
 27 28  1  0  0  0  0
 26 29  2  0  0  0  0
  9 22  2  0  0  0  0
  9 23  1  0  0  0  0
 26 27  1  0  0  0  0
 10 22  1  0  0  0  0
 25 26  1  0  0  0  0
 23 24  2  0  0  0  0
  8 10  2  0  0  0  0
  8 24  1  0  0  0  0
  8 21  1  0  0  0  0
 21 25  1  0  0  0  0
 25 30  1  0  0  0  0
  2 21  1  0  0  0  0
 30 34  2  0  0  0  0
 30 31  1  0  0  0  0
 11 34  1  0  0  0  0
 13 31  2  0  0  0  0
  1  2  1  0  0  0  0
  2 20  2  0  0  0  0
  1  3  1  0  0  0  0
 11 12  2  0  0  0  0
 12 13  1  0  0  0  0
 12 14  1  0  0  0  0
  3  4  1  0  0  0  0
 14 32  1  0  0  0  0
 14 15  1  0  0  0  0
 14 33  1  0  0  0  0
  4  5  1  0  0  0  0
  5 19  2  0  0  0  0
  5  6  1  0  0  0  0
 18 19  1  0  0  0  0
  6 17  2  0  0  0  0
  7 18  2  0  0  0  0
  7 17  1  0  0  0  0
 16 17  1  0  0  0  0
  1 35  1  0  0  0  0
  3 36  1  0  0  0  0
  3 37  1  0  0  0  0
  4 38  1  0  0  0  0
  4 39  1  0  0  0  0
  6 40  1  0  0  0  0
  7 41  1  0  0  0  0
  9 42  1  0  0  0  0
 10 43  1  0  0  0  0
 11 44  1  0  0  0  0
 13 45  1  0  0  0  0
 15 46  1  0  0  0  0
 15 47  1  0  0  0  0
 15 48  1  0  0  0  0
 18 49  1  0  0  0  0
 19 50  1  0  0  0  0
 21 51  1  0  0  0  0
 22 52  1  0  0  0  0
 24 53  1  0  0  0  0
 27 54  1  0  0  0  0
 27 55  1  0  0  0  0
 28 56  1  0  0  0  0
 28 57  1  0  0  0  0
 28 58  1  0  0  0  0
 31 59  1  0  0  0  0
 32 60  1  0  0  0  0
 32 61  1  0  0  0  0
 32 62  1  0  0  0  0
 33 63  1  0  0  0  0
 33 64  1  0  0  0  0
 33 65  1  0  0  0  0
 34 66  1  0  0  0  0
M  END
> <OPENEYE_ISO_SMILES>
CCC(=O)N(c1ccc(cc1)C(C)(C)C)[C@H](c2cccnc2)C(=O)NCCc3cccc(c3)F

> <OPENEYE_INCHI>
InChI=1S/C28H32FN3O2/c1-5-25(33)32(24-13-11-22(12-14-24)28(2,3)4)26(21-9-7-16-30-19-21)27(34)31-17-15-20-8-6-10-23(29)18-20/h6-14,16,18-19,26H,5,15,17H2,1-4H3,(H,31,34)/t26-/m1/s1

> <OPENEYE_INCHIKEY>
KGVPRQJQXHIIJH-AREMUKBSSA-N

> <FORMULA>
C28H32FN3O2

$$$$
