YVG
  -OEChem-02242320043D

 76 78  0     1  0  0  0  0  0999 V2000
    4.0940    3.6340   -0.4490 C   0  0  0  0  0  0  0  0  0  0  0  0
    4.3490   -0.0110    0.2930 C   0  0  0  0  0  0  0  0  0  0  0  0
    5.2790   -1.9880   -0.8790 C   0  0  0  0  0  0  0  0  0  0  0  0
    6.4550   -3.8440   -1.8020 C   0  0  0  0  0  0  0  0  0  0  0  0
    6.2660   -4.9350   -2.8580 C   0  0  0  0  0  0  0  0  0  0  0  0
    4.0080    5.2230    1.2420 C   0  0  0  0  0  0  0  0  0  0  0  0
   -3.4910   -4.1750    1.7110 C   0  0  0  0  0  0  0  0  0  0  0  0
   -2.6260   -2.6240    0.1050 C   0  0  0  0  0  0  0  0  0  0  0  0
   -1.2730   -3.3090    1.9580 C   0  0  0  0  0  0  0  0  0  0  0  0
   -2.8540    0.0940    1.0550 C   0  0  0  0  0  0  0  0  0  0  0  0
   -0.4510   -0.2910    0.9250 C   0  0  1  0  0  0  0  0  0  0  0  0
   -0.3150   -1.6850    0.3110 C   0  0  0  0  0  0  0  0  0  0  0  0
    3.1390    0.9200    0.3950 C   0  0  2  0  0  0  0  0  0  0  0  0
    3.4490    2.0530    1.3760 C   0  0  0  0  0  0  0  0  0  0  0  0
    4.5640    2.9310    0.8050 C   0  0  2  0  0  0  0  0  0  0  0  0
    4.0880   -1.0710   -0.7790 C   0  0  0  0  0  0  0  0  0  0  0  0
    0.7350    0.5500    0.5300 C   0  0  0  0  0  0  0  0  0  0  0  0
    4.8990    4.0830    1.7820 C   0  0  0  0  0  0  0  0  0  0  0  0
   -3.6540   -3.4300    0.5580 C   0  0  0  0  0  0  0  0  0  0  0  0
   -1.4360   -2.5630    0.8050 C   0  0  0  0  0  0  0  0  0  0  0  0
   -2.3010   -4.1150    2.4110 C   0  0  0  0  0  0  0  0  0  0  0  0
   -4.1190    0.7420    0.5540 C   0  0  1  0  0  0  0  0  0  0  0  0
   -4.6400   -0.0280   -0.6600 C   0  0  0  0  0  0  0  0  0  0  0  0
   -8.0240    2.0060   -2.2910 C   0  0  0  0  0  0  0  0  0  0  0  0
   -6.7530    2.3100   -2.7400 C   0  0  0  0  0  0  0  0  0  0  0  0
   -5.6570    1.6510   -2.2120 C   0  0  0  0  0  0  0  0  0  0  0  0
   -5.8340    0.6890   -1.2360 C   0  0  0  0  0  0  0  0  0  0  0  0
   -7.1060    0.3840   -0.7870 C   0  0  0  0  0  0  0  0  0  0  0  0
   -8.2010    1.0430   -1.3150 C   0  0  0  0  0  0  0  0  0  0  0  0
   -1.6810    0.3390    0.4380 N   0  0  0  0  0  0  0  0  0  0  0  0
    1.9800    0.1640    0.8730 N   0  0  0  0  0  0  0  0  0  0  0  0
    3.7950    4.9160   -0.1770 N   0  0  0  0  0  0  0  0  0  0  0  0
   -5.1320    0.7250    1.6170 N   0  0  0  0  0  0  0  0  0  0  0  0
   -2.8910   -0.6480    2.0140 O   0  0  0  0  0  0  0  0  0  0  0  0
    4.0060    3.1180   -1.5430 O   0  0  0  0  0  0  0  0  0  0  0  0
    5.2740   -3.0010   -1.7600 O   0  0  0  0  0  0  0  0  0  0  0  0
    6.2390   -1.8120   -0.1660 O   0  0  0  0  0  0  0  0  0  0  0  0
    0.5690    1.5750   -0.0970 O   0  0  0  0  0  0  0  0  0  0  0  0
    5.2320    0.5680    0.0230 H   0  0  0  0  0  0  0  0  0  0  0  0
    4.5140   -0.4990    1.2540 H   0  0  0  0  0  0  0  0  0  0  0  0
    6.6070   -4.3060   -0.8260 H   0  0  0  0  0  0  0  0  0  0  0  0
    7.3250   -3.2390   -2.0570 H   0  0  0  0  0  0  0  0  0  0  0  0
    7.1530   -5.5680   -2.8900 H   0  0  0  0  0  0  0  0  0  0  0  0
    5.3960   -5.5410   -2.6030 H   0  0  0  0  0  0  0  0  0  0  0  0
    6.1140   -4.4730   -3.8340 H   0  0  0  0  0  0  0  0  0  0  0  0
    3.0550    5.2390    1.7720 H   0  0  0  0  0  0  0  0  0  0  0  0
    4.5150    6.1820    1.3500 H   0  0  0  0  0  0  0  0  0  0  0  0
   -4.2960   -4.8010    2.0670 H   0  0  0  0  0  0  0  0  0  0  0  0
   -2.7530   -2.0420   -0.7960 H   0  0  0  0  0  0  0  0  0  0  0  0
   -0.3430   -3.2610    2.5050 H   0  0  0  0  0  0  0  0  0  0  0  0
   -0.4920   -0.3740    2.0110 H   0  0  0  0  0  0  0  0  0  0  0  0
   -0.3640   -1.6100   -0.7750 H   0  0  0  0  0  0  0  0  0  0  0  0
    0.6420   -2.1190    0.6030 H   0  0  0  0  0  0  0  0  0  0  0  0
    2.9200    1.3400   -0.5870 H   0  0  0  0  0  0  0  0  0  0  0  0
    2.5540    2.6560    1.5300 H   0  0  0  0  0  0  0  0  0  0  0  0
    3.7710    1.6310    2.3280 H   0  0  0  0  0  0  0  0  0  0  0  0
    5.4510    2.3330    0.5980 H   0  0  0  0  0  0  0  0  0  0  0  0
    3.2050   -1.6510   -0.5090 H   0  0  0  0  0  0  0  0  0  0  0  0
    3.9220   -0.5830   -1.7390 H   0  0  0  0  0  0  0  0  0  0  0  0
    5.9540    4.3510    1.7210 H   0  0  0  0  0  0  0  0  0  0  0  0
    4.6230    3.8210    2.8030 H   0  0  0  0  0  0  0  0  0  0  0  0
   -4.5840   -3.4770    0.0110 H   0  0  0  0  0  0  0  0  0  0  0  0
   -2.1740   -4.6970    3.3120 H   0  0  0  0  0  0  0  0  0  0  0  0
   -3.9100    1.7730    0.2680 H   0  0  0  0  0  0  0  0  0  0  0  0
   -3.8560   -0.0910   -1.4150 H   0  0  0  0  0  0  0  0  0  0  0  0
   -4.9320   -1.0330   -0.3550 H   0  0  0  0  0  0  0  0  0  0  0  0
   -8.8790    2.5230   -2.7000 H   0  0  0  0  0  0  0  0  0  0  0  0
   -6.6150    3.0610   -3.5030 H   0  0  0  0  0  0  0  0  0  0  0  0
   -4.6640    1.8880   -2.5640 H   0  0  0  0  0  0  0  0  0  0  0  0
   -7.2440   -0.3680   -0.0250 H   0  0  0  0  0  0  0  0  0  0  0  0
   -9.1940    0.8050   -0.9640 H   0  0  0  0  0  0  0  0  0  0  0  0
   -1.6510    0.9330   -0.3280 H   0  0  0  0  0  0  0  0  0  0  0  0
    2.1070   -0.6150    1.4370 H   0  0  0  0  0  0  0  0  0  0  0  0
    3.4790    5.5560   -0.8340 H   0  0  0  0  0  0  0  0  0  0  0  0
   -5.3430   -0.2200    1.9000 H   0  0  0  0  0  0  0  0  0  0  0  0
   -4.8390    1.2810    2.4060 H   0  0  0  0  0  0  0  0  0  0  0  0
  7 21  2  0  0  0  0
  7 19  1  0  0  0  0
 24 25  2  0  0  0  0
 24 29  1  0  0  0  0
 25 26  1  0  0  0  0
  9 21  1  0  0  0  0
  8 19  2  0  0  0  0
 28 29  2  0  0  0  0
 26 27  2  0  0  0  0
  9 20  2  0  0  0  0
  8 20  1  0  0  0  0
 27 28  1  0  0  0  0
 23 27  1  0  0  0  0
 12 20  1  0  0  0  0
 22 23  1  0  0  0  0
 11 12  1  0  0  0  0
 11 30  1  0  0  0  0
 11 17  1  0  0  0  0
 10 30  1  0  0  0  0
 10 22  1  0  0  0  0
 10 34  2  0  0  0  0
 22 33  1  0  0  0  0
 17 31  1  0  0  0  0
 17 38  2  0  0  0  0
 13 31  1  0  0  0  0
  2 16  1  0  0  0  0
  3 16  1  0  0  0  0
  2 13  1  0  0  0  0
 13 14  1  0  0  0  0
  1 35  2  0  0  0  0
 14 15  1  0  0  0  0
  1 15  1  0  0  0  0
 15 18  1  0  0  0  0
  3 36  1  0  0  0  0
  3 37  2  0  0  0  0
  1 32  1  0  0  0  0
  4 36  1  0  0  0  0
  4  5  1  0  0  0  0
  6 18  1  0  0  0  0
  6 32  1  0  0  0  0
  2 39  1  0  0  0  0
  2 40  1  0  0  0  0
  4 41  1  0  0  0  0
  4 42  1  0  0  0  0
  5 43  1  0  0  0  0
  5 44  1  0  0  0  0
  5 45  1  0  0  0  0
  6 46  1  0  0  0  0
  6 47  1  0  0  0  0
  7 48  1  0  0  0  0
  8 49  1  0  0  0  0
  9 50  1  0  0  0  0
 11 51  1  0  0  0  0
 12 52  1  0  0  0  0
 12 53  1  0  0  0  0
 13 54  1  0  0  0  0
 14 55  1  0  0  0  0
 14 56  1  0  0  0  0
 15 57  1  0  0  0  0
 16 58  1  0  0  0  0
 16 59  1  0  0  0  0
 18 60  1  0  0  0  0
 18 61  1  0  0  0  0
 19 62  1  0  0  0  0
 21 63  1  0  0  0  0
 22 64  1  0  0  0  0
 23 65  1  0  0  0  0
 23 66  1  0  0  0  0
 24 67  1  0  0  0  0
 25 68  1  0  0  0  0
 26 69  1  0  0  0  0
 28 70  1  0  0  0  0
 29 71  1  0  0  0  0
 30 72  1  0  0  0  0
 31 73  1  0  0  0  0
 32 74  1  0  0  0  0
 33 75  1  0  0  0  0
 33 76  1  0  0  0  0
M  END
> <OPENEYE_ISO_SMILES>
CCOC(=O)CC[C@H](C[C@@H]1CCNC1=O)NC(=O)[C@H](Cc2ccccc2)NC(=O)[C@@H](Cc3ccccc3)N

> <OPENEYE_INCHI>
InChI=1S/C29H38N4O5/c1-2-38-26(34)14-13-23(19-22-15-16-31-27(22)35)32-29(37)25(18-21-11-7-4-8-12-21)33-28(36)24(30)17-20-9-5-3-6-10-20/h3-12,22-25H,2,13-19,30H2,1H3,(H,31,35)(H,32,37)(H,33,36)/t22-,23+,24+,25-/m0/s1

> <OPENEYE_INCHIKEY>
OCJALNNRTNBTPO-LIONHTAISA-N

> <FORMULA>
C29H38N4O5

$$$$
