@<TRIPOS>MOLECULE
/home/pku/3cl/gett_pdb/5SSQ/5SSQ_mol2/ligand/5SSQ_RV3.pdb
 38 41 0 0 0
SMALL
GASTEIGER

@<TRIPOS>ATOM
      1  C18      -47.6740  -28.9970    5.0310 C.ar  201  RV3201     -0.0476
      2  C17      -48.3620  -29.0420    3.8220 C.ar  201  RV3201      0.0388
      3  C15      -47.6600  -29.0900    2.4930 C.2   201  RV3201      0.2444
      4  C13      -45.5740  -29.9880    1.3820 C.3   201  RV3201      0.0398
      5  C12      -44.4830  -28.9780    1.1300 C.ar  201  RV3201      0.0038
      6  C11      -44.6640  -27.7570    0.4780 C.ar  201  RV3201      0.0050
      7  C10      -45.7840  -27.1190   -0.0690 C.ar  201  RV3201     -0.0523
      8  C20      -49.7800  -29.2010    6.1960 C.ar  201  RV3201      0.0660
      9  C19      -48.3820  -29.0530    6.2260 C.ar  201  RV3201     -0.0355
     10  C02      -42.4490  -30.2230    2.1650 C.2   201  RV3201      0.0881
     11  C04      -43.1370  -29.0770    1.4450 C.ar  201  RV3201      0.0676
     12  C06      -43.4190  -27.1700    0.4440 C.ar  201  RV3201      0.0473
     13  C07      -43.2690  -25.9160   -0.1460 C.ar  201  RV3201     -0.0378
     14  C08      -44.3720  -25.2830   -0.6910 C.ar  201  RV3201     -0.0598
     15  C09      -45.6270  -25.8740   -0.6530 C.ar  201  RV3201     -0.0611
     16  C22      -51.8830  -29.4330    6.5510 C.ar  201  RV3201      0.0944
     17  C24      -50.4320  -29.2840    4.9880 C.ar  201  RV3201      0.0895
     18  C25      -49.7230  -29.2180    3.7960 C.ar  201  RV3201     -0.0221
     19  N05      -42.5320  -27.9820    1.0320 N.ar  201  RV3201     -0.3530
     20  N14      -46.3690  -29.7360    2.5590 N.am  201  RV3201     -0.3071
     21  N21      -50.7140  -29.3000    7.1530 N.ar  201  RV3201     -0.3444
     22  N23      -51.7260  -29.4290    5.2510 N.ar  201  RV3201     -0.2359
     23  O01      -43.0980  -30.9480    2.9680 O.co2 201  RV3201     -0.5431
     24  O03      -41.2240  -30.4050    1.9570 O.co2 201  RV3201     -0.5431
     25  O16      -48.1460  -28.7850    1.4630 O.2   201  RV3201     -0.2702
     26 H181      -46.6010  -28.8910    5.0370 H     201  RV3201      0.0626
     27 H131      -45.1170  -30.9670    1.4820 H     201  RV3201      0.0512
     28 H132      -46.2370  -29.9950    0.5260 H     201  RV3201      0.0512
     29 H101      -46.7570  -27.5990   -0.0340 H     201  RV3201      0.0624
     30 H191      -47.8580  -29.0050    7.1700 H     201  RV3201      0.0639
     31 H071      -42.2980  -25.4460   -0.1770 H     201  RV3201      0.0638
     32 H081      -44.2610  -24.3120   -1.1410 H     201  RV3201      0.0618
     33 H091      -46.4760  -25.3680   -1.0770 H     201  RV3201      0.0618
     34 H221      -52.8400  -29.5310    7.0340 H     201  RV3201      0.1027
     35 H251      -50.2370  -29.2920    2.8500 H     201  RV3201      0.0647
     36 H051      -41.5480  -27.7970    1.1380 H     201  RV3201      0.1659
     37 H141      -46.0130  -30.0280    3.4450 H     201  RV3201      0.1493
     38 H211      -50.5640  -29.2820    8.1340 H     201  RV3201      0.1668
@<TRIPOS>UNITY_ATOM_ATTR
23 1
charge -1
@<TRIPOS>BOND
     1    32    14    1
     2    33    15    1
     3    14    15   ar
     4    14    13   ar
     5    15     7   ar
     6    31    13    1
     7    13    12   ar
     8     7    29    1
     9     7     6   ar
    10    12     6   ar
    11    12    19   ar
    12     6     5   ar
    13    28     4    1
    14    19    36    1
    15    19    11   ar
    16     5     4    1
    17     5    11   ar
    18     4    27    1
    19     4    20    1
    20    11    10    1
    21    25     3    2
    22    24    10   ar
    23    10    23   ar
    24     3    20   am
    25     3     2    1
    26    20    37    1
    27    35    18    1
    28    18     2   ar
    29    18    17   ar
    30     2     1   ar
    31    17    22   ar
    32    17     8   ar
    33     1    26    1
    34     1     9   ar
    35    22    16   ar
    36     8     9   ar
    37     8    21   ar
    38     9    30    1
    39    16    34    1
    40    16    21   ar
    41    21    38    1
