WXY
  -OEChem-02242320043D

 41 44  0     0  0  0  0  0  0999 V2000
    2.4210    2.6250   -0.0610 C   0  0  0  0  0  0  0  0  0  0  0  0
   -1.1630   -0.4770    0.0370 C   0  0  0  0  0  0  0  0  0  0  0  0
   -2.5620   -2.3100    0.0600 C   0  0  0  0  0  0  0  0  0  0  0  0
   -3.5750   -0.2480   -0.0100 C   0  0  0  0  0  0  0  0  0  0  0  0
   -2.5210    1.7930   -0.0440 C   0  0  0  0  0  0  0  0  0  0  0  0
   -2.2930    0.3530   -0.0040 C   0  0  0  0  0  0  0  0  0  0  0  0
    0.2020    0.0980    0.0520 C   0  0  0  0  0  0  0  0  0  0  0  0
    1.2370   -2.1880    0.1780 C   0  0  0  0  0  0  0  0  0  0  0  0
    2.5880   -2.6560   -0.4180 C   0  0  0  0  0  0  0  0  0  0  0  0
    3.5530   -1.5540    0.0940 C   0  0  0  0  0  0  0  0  0  0  0  0
    2.6790   -0.2850    0.0550 C   0  0  0  0  0  0  0  0  0  0  0  0
    2.9560    0.4860   -1.2350 C   0  0  0  0  0  0  0  0  0  0  0  0
    2.0930    1.7490   -1.2710 C   0  0  0  0  0  0  0  0  0  0  0  0
    2.1270    1.8510    1.2250 C   0  0  0  0  0  0  0  0  0  0  0  0
    2.9910    0.5880    1.2690 C   0  0  0  0  0  0  0  0  0  0  0  0
   -3.8530    1.9770   -0.0720 C   0  0  0  0  0  0  0  0  0  0  0  0
    1.2760   -0.7160    0.0910 N   0  0  0  0  0  0  0  0  0  0  0  0
   -1.3500   -1.7950    0.0680 N   0  0  0  0  0  0  0  0  0  0  0  0
   -3.6530   -1.5710    0.0220 N   0  0  0  0  0  0  0  0  0  0  0  0
   -4.4930    0.7670   -0.0520 N   0  0  0  0  0  0  0  0  0  0  0  0
    0.3540    1.3040    0.0290 O   0  0  0  0  0  0  0  0  0  0  0  0
    3.4760    2.9000   -0.0870 H   0  0  0  0  0  0  0  0  0  0  0  0
    1.8110    3.5280   -0.0890 H   0  0  0  0  0  0  0  0  0  0  0  0
   -2.6670   -3.3850    0.0860 H   0  0  0  0  0  0  0  0  0  0  0  0
   -1.7650    2.5640   -0.0510 H   0  0  0  0  0  0  0  0  0  0  0  0
    0.4070   -2.5800   -0.4100 H   0  0  0  0  0  0  0  0  0  0  0  0
    1.1480   -2.5050    1.2170 H   0  0  0  0  0  0  0  0  0  0  0  0
    2.8690   -3.6340   -0.0270 H   0  0  0  0  0  0  0  0  0  0  0  0
    2.5520   -2.6690   -1.5070 H   0  0  0  0  0  0  0  0  0  0  0  0
    3.8780   -1.7680    1.1130 H   0  0  0  0  0  0  0  0  0  0  0  0
    4.4110   -1.4520   -0.5710 H   0  0  0  0  0  0  0  0  0  0  0  0
    4.0090    0.7650   -1.2720 H   0  0  0  0  0  0  0  0  0  0  0  0
    2.7160   -0.1430   -2.0920 H   0  0  0  0  0  0  0  0  0  0  0  0
    1.0390    1.4700   -1.2420 H   0  0  0  0  0  0  0  0  0  0  0  0
    2.2970    2.3030   -2.1870 H   0  0  0  0  0  0  0  0  0  0  0  0
    2.3570    2.4770    2.0870 H   0  0  0  0  0  0  0  0  0  0  0  0
    1.0740    1.5720    1.2490 H   0  0  0  0  0  0  0  0  0  0  0  0
    2.7750    0.0320    2.1810 H   0  0  0  0  0  0  0  0  0  0  0  0
    4.0440    0.8670    1.2540 H   0  0  0  0  0  0  0  0  0  0  0  0
   -4.3460    2.9370   -0.1050 H   0  0  0  0  0  0  0  0  0  0  0  0
   -5.4550    0.6460   -0.0650 H   0  0  0  0  0  0  0  0  0  0  0  0
  1 13  1  0  0  0  0
 12 13  1  0  0  0  0
  1 14  1  0  0  0  0
  9 10  1  0  0  0  0
 10 11  1  0  0  0  0
 14 15  1  0  0  0  0
 11 12  1  0  0  0  0
  8  9  1  0  0  0  0
 11 15  1  0  0  0  0
 11 17  1  0  0  0  0
  8 17  1  0  0  0  0
  7 17  1  0  0  0  0
  7 21  2  0  0  0  0
  2  7  1  0  0  0  0
  2  6  2  0  0  0  0
  2 18  1  0  0  0  0
  5  6  1  0  0  0  0
  5 16  2  0  0  0  0
  4  6  1  0  0  0  0
  3 18  2  0  0  0  0
 16 20  1  0  0  0  0
  4 20  1  0  0  0  0
  4 19  2  0  0  0  0
  3 19  1  0  0  0  0
  1 22  1  0  0  0  0
  1 23  1  0  0  0  0
  3 24  1  0  0  0  0
  5 25  1  0  0  0  0
  8 26  1  0  0  0  0
  8 27  1  0  0  0  0
  9 28  1  0  0  0  0
  9 29  1  0  0  0  0
 10 30  1  0  0  0  0
 10 31  1  0  0  0  0
 12 32  1  0  0  0  0
 12 33  1  0  0  0  0
 13 34  1  0  0  0  0
 13 35  1  0  0  0  0
 14 36  1  0  0  0  0
 14 37  1  0  0  0  0
 15 38  1  0  0  0  0
 15 39  1  0  0  0  0
 16 40  1  0  0  0  0
 20 41  1  0  0  0  0
M  END
> <OPENEYE_ISO_SMILES>
c1c[nH]c2c1c(ncn2)C(=O)N3CCCC34CCCCC4

> <OPENEYE_INCHI>
InChI=1S/C16H20N4O/c21-15(13-12-5-9-17-14(12)19-11-18-13)20-10-4-8-16(20)6-2-1-3-7-16/h5,9,11H,1-4,6-8,10H2,(H,17,18,19)

> <OPENEYE_INCHIKEY>
VQJWUFYETGKQGL-UHFFFAOYSA-N

> <FORMULA>
C16H20N4O

$$$$
