@<TRIPOS>MOLECULE
/home/pku/3cl/gett_pdb/7END/7END_mol2/ligand/7END_J7R.pdb
 34 37 0 0 0
SMALL
GASTEIGER

@<TRIPOS>ATOM
      1  N1        -8.7910  -37.7030  -22.7760 N.am  401  J7R401     -0.1997
      2  N3       -10.9560  -41.2260  -22.1240 N.pl3 401  J7R401     -0.2358
      3  C4       -11.8450  -37.6500  -22.5880 C.ar  401  J7R401      0.0127
      4  C5       -13.1930  -37.7520  -22.8580 C.ar  401  J7R401      0.0364
      5  C6       -13.8250  -38.9780  -22.8810 C.ar  401  J7R401      0.0321
      6  C7       -13.0850  -40.1150  -22.6370 C.ar  401  J7R401      0.1582
      7  C8       -11.7280  -40.0210  -22.3580 C.ar  401  J7R401      0.0921
      8  C10      -10.7740  -42.2370  -24.3800 C.3   401  J7R401      0.0233
      9  C13       -9.4090  -43.8760  -22.1970 C.3   401  J7R401      0.0234
     10  C15       -7.0510  -42.1190  -20.9270 C.2   401  J7R401      0.2663
     11  C17       -7.0430  -41.3390  -18.4890 C.ar  401  J7R401      0.1034
     12  C20       -3.9040  -38.7100  -19.2360 C.ar  401  J7R401      0.0015
     13  C21       -3.3480  -38.6000  -20.5040 C.ar  401  J7R401      0.0000
     14  C22       -3.8350  -39.3770  -21.5540 C.ar  401  J7R401      0.0000
     15  C24       -5.4530  -40.3720  -20.0300 C.ar  401  J7R401      0.0074
     16  C1        -7.3890  -37.5750  -22.4220 C.3   401  J7R401      0.1388
     17  C11      -10.6610  -43.7610  -24.4110 C.3   401  J7R401      0.0019
     18  C12      -10.6140  -44.3650  -23.0060 C.3   401  J7R401      0.0019
     19  C14       -8.9090  -42.4980  -22.6400 C.3   401  J7R401      0.1154
     20  C16       -6.5200  -41.2730  -19.7740 C.ar  401  J7R401      0.0742
     21  C18       -5.5700  -39.7410  -17.7100 C.ar  401  J7R401      0.0988
     22  C19       -4.9800  -39.6150  -19.0030 C.ar  401  J7R401      0.0193
     23  C2        -9.6240  -38.6220  -22.0330 C.2   401  J7R401      0.2662
     24  C23       -4.8770  -40.2630  -21.3290 C.ar  401  J7R401      0.0002
     25  C3       -11.1050  -38.7830  -22.3490 C.ar  401  J7R401      0.0720
     26  C9       -10.0220  -41.6080  -23.2030 C.3   401  J7R401      0.1124
     27  N2       -13.7540  -41.3990  -22.6430 N.pl3 401  J7R401      0.0590
     28  N4        -8.3270  -41.7630  -21.5170 N.am  401  J7R401     -0.2016
     29  N5        -6.5670  -40.5870  -17.4950 N.ar  401  J7R401     -0.2422
     30  O1        -9.1670  -39.2490  -21.1370 O.2   401  J7R401     -0.2683
     31  O2       -13.1930  -42.3700  -22.2800 O.2   401  J7R401     -0.1261
     32  O3       -15.0970  -41.4630  -23.0320 O.2   401  J7R401     -0.1261
     33  O4        -6.4150  -43.0380  -21.3310 O.2   401  J7R401     -0.2683
     34 BR1       -14.1810  -36.1310  -23.2030 Br    401  J7R401     -0.0489
@<TRIPOS>BOND
     1    17     8    1
     2    17    18    1
     3     8    26    1
     4    34     4    1
     5    26    19    1
     6    26     2    1
     7    32    27    2
     8    18     9    1
     9     5     4   ar
    10     5     6   ar
    11     4     3   ar
    12     1    16    1
    13     1    23   am
    14    27     6    1
    15    27    31    2
    16    19     9    1
    17    19    28    1
    18     6     7   ar
    19     3    25   ar
    20     7    25   ar
    21     7     2    1
    22    25    23    1
    23    23    30    2
    24    14    24   ar
    25    14    13   ar
    26    28    10   am
    27    33    10    2
    28    24    15   ar
    29    10    20    1
    30    13    12   ar
    31    15    20   ar
    32    15    22   ar
    33    20    11   ar
    34    12    22   ar
    35    22    21   ar
    36    11    29   ar
    37    21    29   ar
