7VQ
  -OEChem-02242320013D

 74 76  0     1  0  0  0  0  0999 V2000
   -2.7730    0.6850    0.0300 N   0  0  0  0  0  0  0  0  0  0  0  0
   -9.0400   -0.1920    2.0690 C   0  0  0  0  0  0  0  0  0  0  0  0
   -5.0840    0.3730    0.1050 O   0  0  0  0  0  0  0  0  0  0  0  0
   -9.4490   -1.4260    1.5990 C   0  0  0  0  0  0  0  0  0  0  0  0
   -1.3820    2.6940    0.1240 C   0  0  0  0  0  0  0  0  0  0  0  0
   -2.6150    3.5750   -0.0880 C   0  0  0  0  0  0  0  0  0  0  0  0
   -1.1560    2.4840    1.6220 C   0  0  0  0  0  0  0  0  0  0  0  0
    1.9980    0.0320   -0.6000 C   0  0  2  0  0  0  0  0  0  0  0  0
    3.2370    0.8910   -0.6140 C   0  0  0  0  0  0  0  0  0  0  0  0
    2.0830   -1.0040   -1.7220 C   0  0  0  0  0  0  0  0  0  0  0  0
    0.9050   -1.9400   -1.6310 C   0  0  0  0  0  0  0  0  0  0  0  0
   -0.3390   -3.6630   -1.0880 C   0  0  0  0  0  0  0  0  0  0  0  0
   -1.0870   -2.8770   -1.8830 C   0  0  0  0  0  0  0  0  0  0  0  0
   -0.2840   -1.7690   -2.2370 C   0  0  0  0  0  0  0  0  0  0  0  0
   -8.8630   -1.9640    0.4680 C   0  0  0  0  0  0  0  0  0  0  0  0
    5.6530    1.1620   -0.4600 C   0  0  2  0  0  0  0  0  0  0  0  0
    6.1130    1.3690   -1.9040 C   0  0  0  0  0  0  0  0  0  0  0  0
    6.7630    0.4700    0.3340 C   0  0  0  0  0  0  0  0  0  0  0  0
    6.3540    0.3740    1.8050 C   0  0  2  0  0  0  0  0  0  0  0  0
    7.4730   -0.2950    2.6360 C   0  0  0  0  0  0  0  0  0  0  0  0
    7.0280   -1.7740    2.6310 C   0  0  0  0  0  0  0  0  0  0  0  0
    5.1680   -0.5520    1.9660 C   0  0  0  0  0  0  0  0  0  0  0  0
   -7.8690   -1.2670   -0.1930 C   0  0  0  0  0  0  0  0  0  0  0  0
   -7.4600   -0.0330    0.2780 C   0  0  0  0  0  0  0  0  0  0  0  0
   -8.0490    0.5070    1.4050 C   0  0  0  0  0  0  0  0  0  0  0  0
   -6.3800    0.7290   -0.4460 C   0  0  0  0  0  0  0  0  0  0  0  0
   -4.0050    0.9710   -0.4350 C   0  0  0  0  0  0  0  0  0  0  0  0
   -1.6000    1.3400   -0.5540 C   0  0  1  0  0  0  0  0  0  0  0  0
   -0.3850    0.4730   -0.3450 C   0  0  0  0  0  0  0  0  0  0  0  0
    0.8170    0.8760   -0.8020 N   0  0  0  0  0  0  0  0  0  0  0  0
    4.4490    0.3270   -0.4460 N   0  0  0  0  0  0  0  0  0  0  0  0
    5.5740   -1.7450    2.4340 N   0  0  0  0  0  0  0  0  0  0  0  0
   -4.1430    1.7680   -1.3420 O   0  0  0  0  0  0  0  0  0  0  0  0
   -0.4890   -0.5880    0.2340 O   0  0  0  0  0  0  0  0  0  0  0  0
    0.8660   -3.0890   -0.9370 O   0  0  0  0  0  0  0  0  0  0  0  0
    3.1420    2.0890   -0.7780 O   0  0  0  0  0  0  0  0  0  0  0  0
    4.0190   -0.2600    1.7110 O   0  0  0  0  0  0  0  0  0  0  0  0
    6.5150    0.1160   -2.4610 O   0  0  0  0  0  0  0  0  0  0  0  0
   -2.6640    0.0490    0.7540 H   0  0  0  0  0  0  0  0  0  0  0  0
   -9.4980    0.2270    2.9530 H   0  0  0  0  0  0  0  0  0  0  0  0
  -10.2260   -1.9700    2.1150 H   0  0  0  0  0  0  0  0  0  0  0  0
   -0.5090    3.1810   -0.3100 H   0  0  0  0  0  0  0  0  0  0  0  0
   -3.4880    3.0880    0.3470 H   0  0  0  0  0  0  0  0  0  0  0  0
   -2.4600    4.5400    0.3950 H   0  0  0  0  0  0  0  0  0  0  0  0
   -2.7760    3.7240   -1.1550 H   0  0  0  0  0  0  0  0  0  0  0  0
   -2.0290    1.9970    2.0570 H   0  0  0  0  0  0  0  0  0  0  0  0
   -0.2770    1.8570    1.7730 H   0  0  0  0  0  0  0  0  0  0  0  0
   -1.0010    3.4490    2.1050 H   0  0  0  0  0  0  0  0  0  0  0  0
    1.9200   -0.4770    0.3610 H   0  0  0  0  0  0  0  0  0  0  0  0
    2.0710   -0.4980   -2.6870 H   0  0  0  0  0  0  0  0  0  0  0  0
    3.0070   -1.5730   -1.6210 H   0  0  0  0  0  0  0  0  0  0  0  0
   -0.6550   -4.5950   -0.6440 H   0  0  0  0  0  0  0  0  0  0  0  0
   -2.1050   -3.0600   -2.1950 H   0  0  0  0  0  0  0  0  0  0  0  0
   -0.5700   -0.9430   -2.8720 H   0  0  0  0  0  0  0  0  0  0  0  0
   -9.1820   -2.9280    0.1010 H   0  0  0  0  0  0  0  0  0  0  0  0
    5.4310    2.1280   -0.0070 H   0  0  0  0  0  0  0  0  0  0  0  0
    5.2920    1.7810   -2.4910 H   0  0  0  0  0  0  0  0  0  0  0  0
    6.9550    2.0610   -1.9220 H   0  0  0  0  0  0  0  0  0  0  0  0
    6.9240   -0.5320   -0.0640 H   0  0  0  0  0  0  0  0  0  0  0  0
    7.6840    1.0460    0.2500 H   0  0  0  0  0  0  0  0  0  0  0  0
    6.1220    1.3630    2.2010 H   0  0  0  0  0  0  0  0  0  0  0  0
    8.4420   -0.1770    2.1510 H   0  0  0  0  0  0  0  0  0  0  0  0
    7.4960    0.1020    3.6510 H   0  0  0  0  0  0  0  0  0  0  0  0
    7.5080   -2.3100    1.8120 H   0  0  0  0  0  0  0  0  0  0  0  0
    7.2720   -2.2450    3.5830 H   0  0  0  0  0  0  0  0  0  0  0  0
   -7.4110   -1.6870   -1.0760 H   0  0  0  0  0  0  0  0  0  0  0  0
   -7.7300    1.4710    1.7730 H   0  0  0  0  0  0  0  0  0  0  0  0
   -6.5450    1.7990   -0.3230 H   0  0  0  0  0  0  0  0  0  0  0  0
   -6.4050    0.4770   -1.5060 H   0  0  0  0  0  0  0  0  0  0  0  0
   -1.7610    1.4890   -1.6210 H   0  0  0  0  0  0  0  0  0  0  0  0
    0.9000    1.7240   -1.2650 H   0  0  0  0  0  0  0  0  0  0  0  0
    4.5250   -0.6310   -0.3150 H   0  0  0  0  0  0  0  0  0  0  0  0
    4.9820   -2.4900    2.6190 H   0  0  0  0  0  0  0  0  0  0  0  0
    6.8190    0.1720   -3.3770 H   0  0  0  0  0  0  0  0  0  0  0  0
 17 38  1  0  0  0  0
 16 17  1  0  0  0  0
 16 18  1  0  0  0  0
 18 19  1  0  0  0  0
 16 31  1  0  0  0  0
  9 31  1  0  0  0  0
 22 37  2  0  0  0  0
 12 35  1  0  0  0  0
 12 13  2  0  0  0  0
 11 35  1  0  0  0  0
 13 14  1  0  0  0  0
 11 14  2  0  0  0  0
 10 11  1  0  0  0  0
 19 22  1  0  0  0  0
 19 20  1  0  0  0  0
  8 10  1  0  0  0  0
 22 32  1  0  0  0  0
  8  9  1  0  0  0  0
  9 36  2  0  0  0  0
  8 30  1  0  0  0  0
 20 21  1  0  0  0  0
 21 32  1  0  0  0  0
 29 34  2  0  0  0  0
 29 30  1  0  0  0  0
 28 29  1  0  0  0  0
  1 28  1  0  0  0  0
  5 28  1  0  0  0  0
  1 27  1  0  0  0  0
  5  7  1  0  0  0  0
 27 33  2  0  0  0  0
  3 27  1  0  0  0  0
  5  6  1  0  0  0  0
  3 26  1  0  0  0  0
 24 26  1  0  0  0  0
 24 25  2  0  0  0  0
 23 24  1  0  0  0  0
  2 25  1  0  0  0  0
 15 23  2  0  0  0  0
  2  4  2  0  0  0  0
  4 15  1  0  0  0  0
  1 39  1  0  0  0  0
  2 40  1  0  0  0  0
  4 41  1  0  0  0  0
  5 42  1  0  0  0  0
  6 43  1  0  0  0  0
  6 44  1  0  0  0  0
  6 45  1  0  0  0  0
  7 46  1  0  0  0  0
  7 47  1  0  0  0  0
  7 48  1  0  0  0  0
  8 49  1  0  0  0  0
 10 50  1  0  0  0  0
 10 51  1  0  0  0  0
 12 52  1  0  0  0  0
 13 53  1  0  0  0  0
 14 54  1  0  0  0  0
 15 55  1  0  0  0  0
 16 56  1  0  0  0  0
 17 57  1  0  0  0  0
 17 58  1  0  0  0  0
 18 59  1  0  0  0  0
 18 60  1  0  0  0  0
 19 61  1  0  0  0  0
 20 62  1  0  0  0  0
 20 63  1  0  0  0  0
 21 64  1  0  0  0  0
 21 65  1  0  0  0  0
 23 66  1  0  0  0  0
 25 67  1  0  0  0  0
 26 68  1  0  0  0  0
 26 69  1  0  0  0  0
 28 70  1  0  0  0  0
 30 71  1  0  0  0  0
 31 72  1  0  0  0  0
 32 73  1  0  0  0  0
 38 74  1  0  0  0  0
M  END
> <OPENEYE_ISO_SMILES>
CC(C)[C@@H](C(=O)N[C@@H](Cc1ccco1)C(=O)N[C@@H](C[C@@H]2CCNC2=O)CO)NC(=O)OCc3ccccc3

> <OPENEYE_INCHI>
InChI=1S/C27H36N4O7/c1-17(2)23(31-27(36)38-16-18-7-4-3-5-8-18)26(35)30-22(14-21-9-6-12-37-21)25(34)29-20(15-32)13-19-10-11-28-24(19)33/h3-9,12,17,19-20,22-23,32H,10-11,13-16H2,1-2H3,(H,28,33)(H,29,34)(H,30,35)(H,31,36)/t19-,20-,22-,23-/m0/s1

> <OPENEYE_INCHIKEY>
HGSMCFBUHVKHTG-SQOUVECCSA-N

> <FORMULA>
C27H36N4O7

$$$$
