VVD
  -OEChem-02242320043D

 22 22  0     0  0  0  0  0  0999 V2000
    2.4240   -0.7400   -0.3650 N   0  0  0  0  0  0  0  0  0  0  0  0
    0.4600   -2.1140   -0.0600 C   0  0  0  0  0  0  0  0  0  0  0  0
   -0.9080   -2.2380    0.0880 C   0  0  0  0  0  0  0  0  0  0  0  0
   -1.7140   -1.1150    0.0770 C   0  0  0  0  0  0  0  0  0  0  0  0
   -1.1430    0.1520   -0.0840 C   0  0  0  0  0  0  0  0  0  0  0  0
    0.2400    0.2740   -0.2330 C   0  0  0  0  0  0  0  0  0  0  0  0
    4.5380    0.5230   -0.1310 C   0  0  0  0  0  0  0  0  0  0  0  0
    3.0660    0.3360    0.1320 C   0  0  0  0  0  0  0  0  0  0  0  0
    2.4590    1.1540    0.7900 O   0  0  0  0  0  0  0  0  0  0  0  0
    1.0360   -0.8590   -0.2150 C   0  0  0  0  0  0  0  0  0  0  0  0
   -3.0520   -1.2400    0.2210 F   0  0  0  0  0  0  0  0  0  0  0  0
   -1.9990    1.3550   -0.0970 C   0  0  0  0  0  0  0  0  0  0  0  0
   -3.2020    1.2460    0.0320 O   0  0  0  0  0  0  0  0  0  0  0  0
   -1.4460    2.5730   -0.2530 O   0  0  0  0  0  0  0  0  0  0  0  0
    2.9220   -1.4310   -0.8290 H   0  0  0  0  0  0  0  0  0  0  0  0
    1.0840   -2.9950   -0.0510 H   0  0  0  0  0  0  0  0  0  0  0  0
   -1.3500   -3.2160    0.2120 H   0  0  0  0  0  0  0  0  0  0  0  0
    0.6870    1.2490   -0.3580 H   0  0  0  0  0  0  0  0  0  0  0  0
    5.1120    0.0430    0.6610 H   0  0  0  0  0  0  0  0  0  0  0  0
    4.7960    0.0740   -1.0900 H   0  0  0  0  0  0  0  0  0  0  0  0
    4.7710    1.5870   -0.1540 H   0  0  0  0  0  0  0  0  0  0  0  0
   -2.0460    3.3310   -0.2550 H   0  0  0  0  0  0  0  0  0  0  0  0
  7  8  1  0  0  0  0
  8  9  2  0  0  0  0
  1  8  1  0  0  0  0
  1 10  1  0  0  0  0
  2 10  2  0  0  0  0
  2  3  1  0  0  0  0
  3  4  2  0  0  0  0
  4 11  1  0  0  0  0
  4  5  1  0  0  0  0
  5  6  2  0  0  0  0
  5 12  1  0  0  0  0
 12 13  2  0  0  0  0
 12 14  1  0  0  0  0
  6 10  1  0  0  0  0
  1 15  1  0  0  0  0
  2 16  1  0  0  0  0
  3 17  1  0  0  0  0
  6 18  1  0  0  0  0
  7 19  1  0  0  0  0
  7 20  1  0  0  0  0
  7 21  1  0  0  0  0
 14 22  1  0  0  0  0
M  END
> <OPENEYE_ISO_SMILES>
CC(=O)Nc1ccc(c(c1)C(=O)O)F

> <OPENEYE_INCHI>
InChI=1S/C9H8FNO3/c1-5(12)11-6-2-3-8(10)7(4-6)9(13)14/h2-4H,1H3,(H,11,12)(H,13,14)

> <OPENEYE_INCHIKEY>
HGFZDZZEWWPKIB-UHFFFAOYSA-N

> <FORMULA>
C9H8FNO3

$$$$
