@<TRIPOS>MOLECULE
/home/pku/3cl/gett_pdb/7T46/7T46_mol2/ligand/7T46_F8C.pdb
 36 38 0 0 0
SMALL
GASTEIGER

@<TRIPOS>ATOM
      1  C13        8.3480   21.3170   24.1840 C.3   401  F8C401      0.0818
      2  C14        7.4210   21.0740   23.0000 C.2   401  F8C401      0.2410
      3  C16        6.3950   22.7700   24.2150 C.3   401  F8C401      0.1156
      4  C17        7.5260   22.2460   25.0960 C.3   401  F8C401      0.0326
      5  C19       10.0010   18.7960   26.7520 C.3   401  F8C401      0.2036
      6  O22       11.6500   25.6570   24.0480 O.3   401  F8C401     -0.4373
      7  N28        6.8860   28.9970   21.6640 N.am  401  F8C401     -0.2795
      8  C29        5.7830   29.8050   21.2010 C.2   401  F8C401      0.2251
      9  C30        5.1740   29.8200   19.7520 C.3   401  F8C401      0.0767
     10  C31        6.0260   30.6050   18.7080 C.3   401  F8C401      0.0096
     11  C32        4.8780   28.3940   19.2120 C.3   401  F8C401      0.0096
     12  C34        7.4410   28.9780   23.0760 C.3   401  F8C401      0.0934
     13  C35        9.0060   28.9560   23.1140 C.3   401  F8C401      0.0218
     14  C02       11.9510   24.2950   24.1830 C.2   401  F8C401      0.4214
     15  C04       13.0440   22.3780   25.4540 C.3   401  F8C401      0.1761
     16  C05       14.2290   22.1600   26.4760 C.3   401  F8C401      0.0312
     17  C06       15.6130   22.6440   25.9290 C.3   401  F8C401      0.0022
     18  C07       15.9610   21.9630   24.5830 C.3   401  F8C401      0.0001
     19  C08       16.7560   22.4500   26.9550 C.3   401  F8C401      0.0001
     20  C09       11.7430   21.7680   26.0850 C.2   401  F8C401      0.2614
     21  C11        9.7060   20.2010   26.0890 C.3   401  F8C401      0.1287
     22  C12        8.6510   19.9980   24.9390 C.3   401  F8C401      0.0335
     23  C23       11.1790   26.1950   22.8050 C.3   401  F8C401      0.1705
     24  C24       11.1960   27.7720   22.6900 C.3   401  F8C401      0.0439
     25  C25        9.6490   27.8230   22.3230 C.3   401  F8C401      0.0102
     26  C26        9.1570   27.9660   20.8820 C.3   401  F8C401      0.0218
     27  C27        7.5800   27.9920   20.7800 C.3   401  F8C401      0.0934
     28  C36        9.6090   26.3160   22.7820 C.3   401  F8C401      0.0439
     29  N03       12.9150   23.8210   25.1170 N.am  401  F8C401     -0.1611
     30  N10       10.9650   20.7300   25.5090 N.am  401  F8C401     -0.2030
     31  N15        6.2880   21.8970   23.0100 N.am  401  F8C401     -0.2054
     32  O01       11.3010   23.5040   23.4650 O.2   401  F8C401     -0.2246
     33  O18        7.5870   20.2720   22.0720 O.2   401  F8C401     -0.2734
     34  O20        8.7100   18.2960   27.1940 O.3   401  F8C401     -0.2185
     35  O21       11.3200   22.3000   27.1490 O.2   401  F8C401     -0.2715
     36  O33        5.2550   30.5950   22.0160 O.2   401  F8C401     -0.2749
@<TRIPOS>BOND
     1    10     9    1
     2    11     9    1
     3     9     8    1
     4    27    26    1
     5    27     7    1
     6    26    25    1
     7     8     7   am
     8     8    36    2
     9     7    12    1
    10    33     2    2
    11    25    24    1
    12    25    28    1
    13    25    13    1
    14    24    23    1
    15    28    23    1
    16    23     6    1
    17     2    31   am
    18     2     1    1
    19    31     3    1
    20    12    13    1
    21    32    14    2
    22     6    14    1
    23    14    29   am
    24     1    22    1
    25     1     4    1
    26     3     4    1
    27    18    17    1
    28    22    21    1
    29    29    15    1
    30    15    20    1
    31    15    16    1
    32    30    20   am
    33    30    21    1
    34    17    16    1
    35    17    19    1
    36    20    35    2
    37    21     5    1
    38     5    34    1
