@<TRIPOS>MOLECULE
/home/pku/3cl/gett_pdb/7TQ7/7TQ7_mol2/ligand/7TQ7_IRR.pdb
 58 31 0 0 0
SMALL
GASTEIGER

@<TRIPOS>ATOM
      1  C15      -20.6930   26.1240   -0.6100 C.3   401  IRR401      0.0000
      2  C15      -20.7290   26.2070   -0.5850 C.2   401  IRR401     -0.0303
      3  C19      -21.7150   23.0020    2.4650 C.2   401  IRR401      0.2794
      4  C19      -21.7070   23.1710    2.3840 C.1   401  IRR401      0.1795
      5  C22      -23.0200   19.4360    3.0520 C.3   401  IRR401      0.0000
      6  C22      -23.0180   19.5750    3.0190 C.3   401  IRR401      0.0000
      7  C16      -19.1500   26.2300   -0.4480 C.3   401  IRR401      0.0000
      8  C16      -19.1800   26.2280   -0.4670 C.3   401  IRR401      0.0000
      9  C17      -21.1890   26.9920   -1.8040 C.3   401  IRR401      0.0303
     10  C17      -21.2170   27.0260   -1.8090 C.3   401  IRR401      0.0000
     11  C24      -22.3150   18.1390    3.4580 C.3   401  IRR401      0.0000
     12  C24      -22.3270   18.2990    3.5160 C.3   401  IRR401      0.0000
     13  C25      -22.9110   17.8840    0.8760 C.3   401  IRR401      0.0000
     14  C25      -22.8340   17.9070    0.9370 C.3   401  IRR401      0.0000
     15  C26      -22.5350   18.2840   -0.5620 C.3   401  IRR401      0.0000
     16  C26      -22.4870   18.3100   -0.5030 C.3   401  IRR401      0.0000
     17  C27      -21.7560   19.6060   -0.6800 C.3   401  IRR401      0.0000
     18  C27      -21.7630   19.6620   -0.6320 C.3   401  IRR401      0.0000
     19  O28      -20.9650   23.0990    3.4470 O.3   401  IRR401      0.0000
     20  O28      -20.8490   23.2160    3.2720 O.2   401  IRR401     -0.2794
     21  N11      -20.8190   26.5790    4.0090 N.3   401  IRR401      0.0000
     22  N11      -20.8770   26.6940    4.1360 N.1   401  IRR401     -0.1795
     23  C01      -20.8430   28.6310    5.3160 C.2   401  IRR401      0.2297
     24  C01      -20.8110   28.7520    5.4880 C.2   401  IRR401      0.2794
     25  C03      -21.2070   27.1340    5.2810 C.1   401  IRR401      0.1795
     26  C03      -21.2610   27.2790    5.4030 C.2   401  IRR401      0.0195
     27  C04      -20.5320   26.4050    6.4570 C.3   401  IRR401      0.0000
     28  C04      -20.6510   26.4740    6.5570 C.3   401  IRR401      0.0343
     29  C05      -20.9110   24.9210    6.5810 C.3   401  IRR401      0.0000
     30  C05      -20.9700   24.9750    6.4830 C.3   401  IRR401      0.0000
     31  C06      -20.3970   24.1680    7.8450 C.2   401  IRR401      0.3420
     32  C06      -20.2890   24.0560    7.5240 C.3   401  IRR401      0.2321
     33  C08      -22.6750   23.6510    7.7880 C.3   401  IRR401      0.0000
     34  C08      -22.5780   23.6440    7.8470 C.3   401  IRR401      0.1297
     35  C09      -22.4210   24.7880    6.7710 C.3   401  IRR401      0.0000
     36  C09      -22.4510   24.7690    6.8000 C.3   401  IRR401      0.0000
     37  C12      -21.6550   25.8890    3.1800 C.3   401  IRR401      0.2175
     38  C12      -21.7470   26.1920    3.2090 C.3   401  IRR401      0.2175
     39  C13      -21.1640   25.3270    1.8420 C.1   401  IRR401      0.1795
     40  C13      -21.2390   25.5650    1.8870 C.3   401  IRR401      0.0303
     41  C14      -21.4270   26.4080    0.7200 C.2   401  IRR401     -0.0303
     42  C14      -21.4040   26.6200    0.7410 C.3   401  IRR401      0.0000
     43  C21      -22.4810   20.8670    3.4190 C.3   401  IRR401      0.0000
     44  C21      -22.4930   21.0260    3.3550 C.2   401  IRR401      0.2794
     45  C23      -22.1890   18.6050    2.0140 C.3   401  IRR401      0.0000
     46  C23      -22.1540   18.6930    2.0560 C.3   401  IRR401      0.0000
     47  N07      -21.3980   23.4670    8.5060 N.3   401  IRR401     -0.1297
     48  N07      -21.2010   23.3150    8.2730 N.2   401  IRR401     -0.0991
     49  N18      -21.8040   24.0490    1.5720 N.1   401  IRR401     -0.1795
     50  N18      -21.9220   24.2950    1.6070 N.1   401  IRR401     -0.1795
     51  O02      -21.3290   29.1950    6.5230 O.2   401  IRR401     -0.2794
     52  O02      -21.5080   29.4900    4.4930 O.2   401  IRR401     -0.2835
     53  O10      -19.2360   24.2130    8.2000 O.2   401  IRR401     -0.3070
     54  O10      -19.0800   23.9980    7.6410 O.3   401  IRR401     -0.1680
     55  O20      -22.4430   21.8430    2.3310 O.2   401  IRR401     -0.2794
     56  O20      -22.4260   21.9950    2.2400 O.3   401  IRR401      0.0000
     57  O29      -22.8280   25.6770    3.4850 O.3   401  IRR401     -0.2175
     58  O29      -22.9600   26.2150    3.4010 O.3   401  IRR401     -0.2175
@<TRIPOS>BOND
     1     9     2    1
     2    17    16    1
     3     1     8    1
     4     2    41    2
     5    16    13    1
     6    41    40    1
     7    14    45    1
     8    49     4    3
     9    50    39    3
    10    46     5    1
    11    46    11    1
    12    55    44    2
    13     3    20    2
    14     6    43    1
    15     5    12    1
    16    37    57    1
    17    38    58    1
    18    58    57    1
    19    22    25    3
    20    52    23    1
    21    23    26    2
    22    26    28    1
    23    24    51    2
    24    27    30    1
    25    30    35    1
    26    36    33    1
    27    32    54    1
    28    54    53    1
    29    31    53    1
    30    31    48    2
    31    34    47    1
