@<TRIPOS>MOLECULE
/home/pku/3cl/gett_pdb/5SP2/5SP2_mol2/ligand/5SP2_WYG.pdb
 32 34 0 0 0
SMALL
GASTEIGER

@<TRIPOS>ATOM
      1  C10      -47.5110  -29.2630    6.5870 C.ar  201  WYG201      0.0042
      2  C17      -46.5280  -30.9140    0.2410 C.3   201  WYG201      0.0638
      3  C02      -43.8980  -32.0900    3.1640 C.2   201  WYG201      0.0442
      4  C03      -44.0800  -31.5520    1.7500 C.3   201  WYG201      0.0146
      5  C04      -44.7800  -30.1970    1.6000 C.3   201  WYG201      0.0794
      6  C05      -45.8970  -29.9350    2.6120 C.3   201  WYG201      0.0402
      7  C07      -48.1650  -29.1190    2.9840 C.ar  201  WYG201      0.1339
      8  C08      -48.0080  -29.1570    4.3900 C.ar  201  WYG201      0.0585
      9  C09      -46.9680  -29.3740    5.3210 C.ar  201  WYG201     -0.0318
     10  C12      -49.1310  -28.9220    5.1620 C.ar  201  WYG201      0.1432
     11  C14      -50.4160  -28.6510    3.2530 C.ar  201  WYG201      0.1204
     12  C16      -47.6080  -30.1330    0.9690 C.3   201  WYG201      0.0371
     13  N06      -47.0750  -29.3480    2.0340 N.pl3 201  WYG201     -0.3099
     14  N11      -48.7920  -28.9940    6.4560 N.ar  201  WYG201     -0.3457
     15  N13      -50.3050  -28.6760    4.5640 N.ar  201  WYG201     -0.2178
     16  N15      -49.3670  -28.8670    2.4730 N.ar  201  WYG201     -0.2200
     17  O01      -43.5030  -31.3340    4.0890 O.co2 201  WYG201     -0.5497
     18  O18      -45.2780  -30.2390    0.2770 O.3   201  WYG201     -0.3731
     19  O19      -44.1150  -33.3070    3.3980 O.co2 201  WYG201     -0.5497
     20 H101      -46.9690  -29.3790    7.5120 H     201  WYG201      0.0807
     21 H171      -46.8220  -31.0270   -0.7810 H     201  WYG201      0.0575
     22 H172      -46.4370  -31.9040    0.6910 H     201  WYG201      0.0575
     23 H031      -43.0980  -31.4190    1.3410 H     201  WYG201      0.0350
     24 H032      -44.5860  -32.3010    1.1360 H     201  WYG201      0.0350
     25 H041      -44.0510  -29.3900    1.6940 H     201  WYG201      0.0615
     26 H051      -45.4890  -29.2160    3.3130 H     201  WYG201      0.0490
     27 H052      -46.1740  -30.8440    3.1510 H     201  WYG201      0.0490
     28 H091      -45.9290  -29.5940    5.0860 H     201  WYG201      0.0640
     29 H141      -51.3870  -28.4490    2.8110 H     201  WYG201      0.1048
     30 H161      -48.3060  -30.8450    1.3760 H     201  WYG201      0.0487
     31 H162      -48.1260  -29.4890    0.2550 H     201  WYG201      0.0487
     32 H111      -49.4220  -28.8660    7.2170 H     201  WYG201      0.1668
@<TRIPOS>UNITY_ATOM_ATTR
17 1
charge -1
@<TRIPOS>BOND
     1    21     2    1
     2     2    18    1
     3     2    22    1
     4     2    12    1
     5    31    12    1
     6    18     5    1
     7    12    30    1
     8    12    13    1
     9    24     4    1
    10    23     4    1
    11     5    25    1
    12     5     4    1
    13     5     6    1
    14     4     3    1
    15    13     6    1
    16    13     7    1
    17    16     7   ar
    18    16    11   ar
    19     6    27    1
    20     6    26    1
    21    29    11    1
    22     7     8   ar
    23     3    19   ar
    24     3    17   ar
    25    11    15   ar
    26     8    10   ar
    27     8     9   ar
    28    15    10   ar
    29    28     9    1
    30    10    14   ar
    31     9     1   ar
    32    14     1   ar
    33    14    32    1
    34     1    20    1
