@<TRIPOS>MOLECULE
/home/pku/3cl/gett_pdb/5SOQ/5SOQ_mol2/ligand/5SOQ_WWJ.pdb
 46 49 0 0 0
SMALL
GASTEIGER

@<TRIPOS>ATOM
      1  C10      -45.5240  -28.9990    4.2130 C.ar  201  WWJ201      0.1340
      2  C13      -46.3200  -29.3260    0.4950 C.3   201  WWJ201     -0.0369
      3  C15      -44.6510  -27.6060    0.8200 C.3   201  WWJ201     -0.0168
      4  C17      -43.4870  -26.0260   -0.7770 C.ar  201  WWJ201      0.2277
      5  C20      -45.3970  -23.8060   -2.8770 C.3   201  WWJ201     -0.0012
      6  C24      -46.7540  -29.0450    4.9190 C.ar  201  WWJ201      0.0617
      7  C01      -50.3110  -28.6110    3.3910 C.3   201  WWJ201     -0.0612
      8  C02      -48.8230  -28.9230    3.2450 C.3   201  WWJ201     -0.0284
      9  C03      -48.1470  -28.9990    4.6160 C.ar  201  WWJ201     -0.0177
     10  C04      -48.8160  -29.0680    5.8290 C.ar  201  WWJ201      0.0074
     11  C06      -46.6610  -29.1220    6.2840 C.ar  201  WWJ201      0.1434
     12  C08      -44.3460  -29.1200    6.1890 C.ar  201  WWJ201      0.1204
     13  C12      -45.9300  -29.9760    1.8310 C.3   201  WWJ201      0.0135
     14  C14      -45.1940  -28.6170   -0.0860 C.3   201  WWJ201     -0.0469
     15  C16      -43.2840  -27.0710    0.2990 C.3   201  WWJ201      0.0308
     16  C19      -44.3600  -24.6270   -2.1430 C.ar  201  WWJ201      0.1687
     17  C23      -44.2980  -28.1620    2.1950 C.3   201  WWJ201      0.0168
     18  N05      -47.9150  -29.1450    6.8050 N.ar  201  WWJ201     -0.3454
     19  N07      -45.4520  -29.1750    6.8840 N.ar  201  WWJ201     -0.2178
     20  N09      -44.3700  -29.0270    4.8680 N.ar  201  WWJ201     -0.2200
     21  N11      -45.4840  -28.8770    2.7950 N.pl3 201  WWJ201     -0.3143
     22  N18      -44.6430  -25.5100   -1.1760 N.ar  201  WWJ201     -0.1964
     23  N21      -43.0440  -24.5880   -2.3220 N.ar  201  WWJ201     -0.0616
     24  O22      -42.5160  -25.4610   -1.4650 O.2   201  WWJ201     -0.3381
     25 H132      -47.1080  -28.5980    0.6870 H     201  WWJ201      0.0280
     26 H131      -46.6690  -30.0800   -0.1890 H     201  WWJ201      0.0280
     27 H151      -45.3620  -26.7960    0.9430 H     201  WWJ201      0.0321
     28 H202      -46.3110  -24.3820   -2.9870 H     201  WWJ201      0.0309
     29 H203      -45.0020  -23.5290   -3.8390 H     201  WWJ201      0.0309
     30 H201      -45.5950  -22.9250   -2.2840 H     201  WWJ201      0.0309
     31 H013      -50.8070  -29.4310    3.9040 H     201  WWJ201      0.0233
     32 H011      -50.4260  -27.6990    3.9710 H     201  WWJ201      0.0233
     33 H012      -50.7490  -28.4770    2.4110 H     201  WWJ201      0.0233
     34 H022      -48.3500  -28.1530    2.6540 H     201  WWJ201      0.0311
     35 H021      -48.7300  -29.8830    2.7360 H     201  WWJ201      0.0311
     36 H041      -49.8900  -29.1050    5.9460 H     201  WWJ201      0.0810
     37 H081      -43.4070  -29.1560    6.7210 H     201  WWJ201      0.1048
     38 H122      -46.7530  -30.5340    2.2590 H     201  WWJ201      0.0464
     39 H121      -45.0900  -30.6430    1.6610 H     201  WWJ201      0.0464
     40 H142      -44.4220  -29.3330   -0.3450 H     201  WWJ201      0.0269
     41 H141      -45.5290  -28.1080   -0.9820 H     201  WWJ201      0.0269
     42 H162      -42.6970  -27.9130   -0.0550 H     201  WWJ201      0.0364
     43 H161      -42.7770  -26.6190    1.1350 H     201  WWJ201      0.0364
     44 H232      -44.0410  -27.3330    2.8400 H     201  WWJ201      0.0467
     45 H231      -43.4440  -28.8420    2.1280 H     201  WWJ201      0.0467
     46 H051      -48.1410  -29.2220    7.7790 H     201  WWJ201      0.1668
@<TRIPOS>BOND
     1    29     5    1
     2    28     5    1
     3     5    30    1
     4     5    16    1
     5    23    16   ar
     6    23    24   ar
     7    16    22   ar
     8    24     4   ar
     9    22     4   ar
    10    41    14    1
    11     4    15    1
    12    40    14    1
    13    26     2    1
    14    14     2    1
    15    14     3    1
    16    42    15    1
    17    15     3    1
    18    15    43    1
    19     2    25    1
    20     2    13    1
    21     3    27    1
    22     3    17    1
    23    39    13    1
    24    13    38    1
    25    13    21    1
    26    45    17    1
    27    17    21    1
    28    17    44    1
    29    33     7    1
    30    34     8    1
    31    35     8    1
    32    21     1    1
    33     8     7    1
    34     8     9    1
    35     7    31    1
    36     7    32    1
    37     1    20   ar
    38     1     6   ar
    39     9     6   ar
    40     9    10   ar
    41    20    12   ar
    42     6    11   ar
    43    10    36    1
    44    10    18   ar
    45    12    37    1
    46    12    19   ar
    47    11    18   ar
    48    11    19   ar
    49    18    46    1
