@<TRIPOS>MOLECULE
/home/pku/3cl/gett_pdb/4YOI/4YOI_mol2/ligand/4YOI_4F4.pdb
 33 37 0 0 0
SMALL
GASTEIGER

@<TRIPOS>ATOM
      1  C10       -6.0130  -23.9520   26.9780 C.ar  401  4F4401      0.0543
      2  O01       -7.3670  -21.4030   29.1080 O.2   401  4F4401     -0.2723
      3  C02       -7.3060  -22.2460   28.2430 C.2   401  4F4401      0.2545
      4  N03       -6.0780  -22.9310   28.0110 N.am  401  4F4401     -0.2527
      5  C04       -4.8940  -22.6400   28.8070 C.3   401  4F4401      0.1253
      6  C05       -3.7190  -22.4810   27.8280 C.ar  401  4F4401      0.0050
      7  C06       -2.7390  -23.4940   27.5160 C.ar  401  4F4401      0.0328
      8  S07       -1.6830  -22.9370   26.4070 S.2   401  4F4401     -0.0862
      9  C08       -2.2710  -21.4500   26.1720 C.ar  401  4F4401      0.0352
     10  C09       -3.4390  -21.2260   26.9930 C.ar  401  4F4401      0.0049
     11  C11       -5.7520  -23.6350   25.6420 C.ar  401  4F4401      0.0162
     12  C12       -5.6790  -24.6680   24.6870 C.ar  401  4F4401      0.0179
     13  C13       -5.8990  -25.9930   25.0860 C.ar  401  4F4401      0.0738
     14  N14       -5.7880  -27.0660   24.1220 N.am  401  4F4401     -0.1750
     15  C15       -6.5120  -28.3050   24.1620 C.2   401  4F4401      0.2750
     16  C16       -6.1710  -29.3090   23.0530 C.ar  401  4F4401      0.0848
     17  C17       -4.9280  -29.3190   22.3260 C.ar  401  4F4401      0.0116
     18  C18       -4.9510  -30.4720   21.3120 C.ar  401  4F4401      0.0076
     19  C19       -6.2040  -31.1740   21.4190 C.ar  401  4F4401      0.0356
     20  S20       -7.1310  -30.5000   22.5640 S.2   401  4F4401     -0.0818
     21  O21       -7.3500  -28.5730   24.9960 O.2   401  4F4401     -0.2675
     22  C22       -6.1380  -26.3000   26.4250 C.ar  401  4F4401      0.0179
     23  C23       -6.2040  -25.2700   27.3730 C.ar  401  4F4401      0.0162
     24  C24       -8.4870  -22.6030   27.3650 C.3   401  4F4401      0.2141
     25  N25       -9.6740  -21.9350   27.7870 N.ar  401  4F4401     -0.2223
     26  C26      -10.6340  -22.5150   28.5910 C.ar  401  4F4401      0.0994
     27  C27      -10.7320  -23.7930   29.2010 C.ar  401  4F4401      0.0204
     28  C28      -11.8540  -24.1080   29.9800 C.ar  401  4F4401      0.0016
     29  C29      -12.8670  -23.1510   30.1650 C.ar  401  4F4401      0.0017
     30  C30      -12.7620  -21.8900   29.5630 C.ar  401  4F4401      0.0225
     31  C31      -11.6310  -21.5730   28.7660 C.ar  401  4F4401      0.1217
     32  N32      -11.2270  -20.4420   28.0510 N.ar  401  4F4401     -0.1288
     33  N33      -10.0440  -20.6880   27.4670 N.ar  401  4F4401     -0.0634
@<TRIPOS>BOND
     1    18    19   ar
     2    18    17   ar
     3    19    20   ar
     4    17    16   ar
     5    20    16   ar
     6    16    15    1
     7    14    15   am
     8    14    13    1
     9    15    21    2
    10    12    13   ar
    11    12    11   ar
    12    13    22   ar
    13    11     1   ar
    14     9     8   ar
    15     9    10   ar
    16     8     7   ar
    17    22    23   ar
    18     1    23   ar
    19     1     4    1
    20    10     6   ar
    21    24    25    1
    22    24     3    1
    23    33    25   ar
    24    33    32   ar
    25     7     6   ar
    26    25    26   ar
    27     6     5    1
    28     4     3   am
    29     4     5    1
    30    32    31   ar
    31     3     2    2
    32    26    31   ar
    33    26    27   ar
    34    31    30   ar
    35    27    28   ar
    36    30    29   ar
    37    28    29   ar
