@<TRIPOS>MOLECULE
/home/pku/3cl/gett_pdb/5RUN/5RUN_mol2/ligand/5RUN_EXB.pdb
 23 24 0 0 0
SMALL
GASTEIGER

@<TRIPOS>ATOM
      1  C2       -43.6250  -33.5000   -1.9770 C.ar  201  EXB201     -0.0361
      2  C5       -45.7140  -35.3030   -1.5720 C.ar  201  EXB201     -0.0342
      3  C4       -44.7800  -35.5350   -2.5530 C.ar  201  EXB201     -0.0596
      4  C3       -43.7370  -34.6360   -2.7570 C.ar  201  EXB201     -0.0597
      5  C6       -45.6020  -34.1410   -0.7970 C.ar  201  EXB201      0.0890
      6  C11      -42.6550  -31.5160    0.8980 C.3   201  EXB201      0.0049
      7  C10      -43.8980  -31.0980    0.0950 C.3   201  EXB201      0.0298
      8  N9       -44.7550  -32.2520   -0.1060 N.ar  201  EXB201     -0.3297
      9  C1       -44.5710  -33.2490   -0.9890 C.ar  201  EXB201      0.0686
     10  C8       -45.8260  -32.5290    0.5870 C.ar  201  EXB201      0.0971
     11  N7       -46.3530  -33.6630    0.1750 N.ar  201  EXB201     -0.2357
     12  C12      -42.9070  -32.1650    2.2730 C.2   201  EXB201      0.0434
     13  O        -43.1340  -33.3970    2.3730 O.co2 201  EXB201     -0.5498
     14  H2       -42.9220  -32.9060   -2.1130 H     201  EXB201      0.0639
     15  H5       -46.4240  -35.8910   -1.4450 H     201  EXB201      0.0639
     16  H4       -44.8410  -36.3000   -3.0780 H     201  EXB201      0.0618
     17  H3       -43.0980  -34.8120   -3.4090 H     201  EXB201      0.0618
     18  H11      -42.1090  -30.7260    1.0360 H     201  EXB201      0.0342
     19  OXT      -42.8840  -31.4520    3.3120 O.co2 201  EXB201     -0.5498
     20  H10      -43.6220  -30.7460   -0.7650 H     201  EXB201      0.0496
     21 H10A      -44.3840  -30.4150    0.5830 H     201  EXB201      0.0496
     22  H8       -46.1630  -32.0060    1.2780 H     201  EXB201      0.1029
     23  H9       -42.1480  -32.1420    0.3590 H     201  EXB201      0.0342
@<TRIPOS>UNITY_ATOM_ATTR
19 1
charge -1
@<TRIPOS>BOND
     1    17     4    1
     2    16     3    1
     3     4     3   ar
     4     4     1   ar
     5     3     2   ar
     6    14     1    1
     7     1     9   ar
     8     2    15    1
     9     2     5   ar
    10     9     5   ar
    11     9     8   ar
    12     5    11   ar
    13    20     7    1
    14     8     7    1
    15     8    10   ar
    16     7    21    1
    17     7     6    1
    18    11    10   ar
    19    23     6    1
    20    10    22    1
    21     6    18    1
    22     6    12    1
    23    12    13   ar
    24    12    19   ar
