WWJ
  -OEChem-02242320043D

 46 49  0     1  0  0  0  0  0999 V2000
    2.2210    0.7850   -0.0280 C   0  0  0  0  0  0  0  0  0  0  0  0
   -0.6780    0.6820   -2.3010 C   0  0  0  0  0  0  0  0  0  0  0  0
   -1.4510    0.4880    0.0640 C   0  0  2  0  0  0  0  0  0  0  0  0
   -3.8470    0.4050    0.7000 C   0  0  0  0  0  0  0  0  0  0  0  0
   -6.5680   -1.9270    0.6270 C   0  0  0  0  0  0  0  0  0  0  0  0
    3.1290   -0.2520    0.2360 C   0  0  0  0  0  0  0  0  0  0  0  0
    1.9010   -2.6950   -1.7770 C   0  0  0  0  0  0  0  0  0  0  0  0
    1.9080   -2.5550   -0.2540 C   0  0  0  0  0  0  0  0  0  0  0  0
    3.0830   -1.7120    0.1680 C   0  0  0  0  0  0  0  0  0  0  0  0
    4.2900   -2.1570    0.5530 C   0  0  0  0  0  0  0  0  0  0  0  0
    4.4230    0.0800    0.6780 C   0  0  0  0  0  0  0  0  0  0  0  0
    3.8500    2.3060    0.5690 C   0  0  0  0  0  0  0  0  0  0  0  0
    0.6900    1.1250   -1.7790 C   0  0  0  0  0  0  0  0  0  0  0  0
   -1.7610    1.1030   -1.3040 C   0  0  0  0  0  0  0  0  0  0  0  0
   -2.4950    0.9510    1.0810 C   0  0  0  0  0  0  0  0  0  0  0  0
   -5.5740   -0.8010    0.4990 C   0  0  0  0  0  0  0  0  0  0  0  0
   -0.0610    0.9370    0.5170 C   0  0  0  0  0  0  0  0  0  0  0  0
    5.1010   -1.0940    0.8610 N   0  0  0  0  0  0  0  0  0  0  0  0
    4.7340    1.3670    0.8280 N   0  0  0  0  0  0  0  0  0  0  0  0
    2.6250    2.0380    0.1520 N   0  0  0  0  0  0  0  0  0  0  0  0
    0.9390    0.5090   -0.4700 N   0  0  2  0  0  0  0  0  0  0  0  0
   -4.3630   -0.7380    1.0820 N   0  0  0  0  0  0  0  0  0  0  0  0
   -5.7300    0.2880   -0.1920 N   0  0  0  0  0  0  0  0  0  0  0  0
   -4.7500    0.9950   -0.0890 O   0  0  0  0  0  0  0  0  0  0  0  0
   -0.8690    1.1520   -3.2660 H   0  0  0  0  0  0  0  0  0  0  0  0
   -0.6900   -0.4020   -2.4160 H   0  0  0  0  0  0  0  0  0  0  0  0
   -1.4760   -0.5990   -0.0130 H   0  0  0  0  0  0  0  0  0  0  0  0
   -7.2250   -1.7360    1.4750 H   0  0  0  0  0  0  0  0  0  0  0  0
   -7.1610   -1.9930   -0.2850 H   0  0  0  0  0  0  0  0  0  0  0  0
   -6.0360   -2.8650    0.7840 H   0  0  0  0  0  0  0  0  0  0  0  0
    1.0060   -3.2330   -2.0890 H   0  0  0  0  0  0  0  0  0  0  0  0
    1.9070   -1.7050   -2.2330 H   0  0  0  0  0  0  0  0  0  0  0  0
    2.7860   -3.2470   -2.0950 H   0  0  0  0  0  0  0  0  0  0  0  0
    0.9830   -2.0780    0.0710 H   0  0  0  0  0  0  0  0  0  0  0  0
    1.9860   -3.5420    0.2020 H   0  0  0  0  0  0  0  0  0  0  0  0
    4.5800   -3.1950    0.6120 H   0  0  0  0  0  0  0  0  0  0  0  0
    4.1380    3.3380    0.7020 H   0  0  0  0  0  0  0  0  0  0  0  0
    1.4650    0.8140   -2.4800 H   0  0  0  0  0  0  0  0  0  0  0  0
    0.7060    2.2110   -1.6790 H   0  0  0  0  0  0  0  0  0  0  0  0
   -1.7750    2.1900   -1.2190 H   0  0  0  0  0  0  0  0  0  0  0  0
   -2.7320    0.7510   -1.6510 H   0  0  0  0  0  0  0  0  0  0  0  0
   -2.2230    0.5880    2.0720 H   0  0  0  0  0  0  0  0  0  0  0  0
   -2.5340    2.0410    1.0920 H   0  0  0  0  0  0  0  0  0  0  0  0
   -0.0410    2.0230    0.6070 H   0  0  0  0  0  0  0  0  0  0  0  0
    0.1690    0.4890    1.4840 H   0  0  0  0  0  0  0  0  0  0  0  0
    6.0190   -1.1650    1.1640 H   0  0  0  0  0  0  0  0  0  0  0  0
  5 16  1  0  0  0  0
 16 23  2  0  0  0  0
 23 24  1  0  0  0  0
 16 22  1  0  0  0  0
  4 24  1  0  0  0  0
  4 22  2  0  0  0  0
  4 15  1  0  0  0  0
  2 14  1  0  0  0  0
  3 14  1  0  0  0  0
  3 15  1  0  0  0  0
  2 13  1  0  0  0  0
  3 17  1  0  0  0  0
 13 21  1  0  0  0  0
 17 21  1  0  0  0  0
  1 21  1  0  0  0  0
  7  8  1  0  0  0  0
  8  9  1  0  0  0  0
  1 20  2  0  0  0  0
  1  6  1  0  0  0  0
  6  9  1  0  0  0  0
  9 10  2  0  0  0  0
 12 20  1  0  0  0  0
  6 11  2  0  0  0  0
 10 18  1  0  0  0  0
 12 19  2  0  0  0  0
 11 18  1  0  0  0  0
 11 19  1  0  0  0  0
  2 25  1  0  0  0  0
  2 26  1  0  0  0  0
  3 27  1  0  0  0  0
  5 28  1  0  0  0  0
  5 29  1  0  0  0  0
  5 30  1  0  0  0  0
  7 31  1  0  0  0  0
  7 32  1  0  0  0  0
  7 33  1  0  0  0  0
  8 34  1  0  0  0  0
  8 35  1  0  0  0  0
 10 36  1  0  0  0  0
 12 37  1  0  0  0  0
 13 38  1  0  0  0  0
 13 39  1  0  0  0  0
 14 40  1  0  0  0  0
 14 41  1  0  0  0  0
 15 42  1  0  0  0  0
 15 43  1  0  0  0  0
 17 44  1  0  0  0  0
 17 45  1  0  0  0  0
 18 46  1  0  0  0  0
M  END
> <OPENEYE_ISO_SMILES>
CCc1c[nH]c2c1c(ncn2)[N@@]3CCC[C@@H](C3)Cc4nc(no4)C

> <OPENEYE_INCHI>
InChI=1S/C17H22N6O/c1-3-13-8-18-16-15(13)17(20-10-19-16)23-6-4-5-12(9-23)7-14-21-11(2)22-24-14/h8,10,12H,3-7,9H2,1-2H3,(H,18,19,20)/t12-/m1/s1

> <OPENEYE_INCHIKEY>
AUNHHPCCLQISEV-GFCCVEGCSA-N

> <FORMULA>
C17H22N6O

$$$$
