E8E
  -OEChem-02242320023D

 77 79  0     1  0  0  0  0  0999 V2000
   -9.3540    0.1150   -1.2360 C   0  0  0  0  0  0  0  0  0  0  0  0
   -1.1600    0.4280    1.3310 C   0  0  2  0  0  0  0  0  0  0  0  0
   -3.7810    0.5900    1.9480 O   0  0  0  0  0  0  0  0  0  0  0  0
   -3.5320    0.3720    0.7770 C   0  0  0  0  0  0  0  0  0  0  0  0
   -4.6240    0.2170   -0.1860 C   0  0  0  0  0  0  0  0  0  0  0  0
   -5.9040    0.3160    0.2240 C   0  0  0  0  0  0  0  0  0  0  0  0
   -7.0020    0.1600   -0.7440 C   0  0  0  0  0  0  0  0  0  0  0  0
   -8.3310    0.2620   -0.3220 C   0  0  0  0  0  0  0  0  0  0  0  0
   -9.0670   -0.1380   -2.5660 C   0  0  0  0  0  0  0  0  0  0  0  0
   -7.7540   -0.2410   -2.9910 C   0  0  0  0  0  0  0  0  0  0  0  0
   -6.7200   -0.0910   -2.0910 C   0  0  0  0  0  0  0  0  0  0  0  0
    4.9560   -3.8610   -1.1050 C   0  0  0  0  0  0  0  0  0  0  0  0
    5.0720   -4.4870   -2.3320 C   0  0  0  0  0  0  0  0  0  0  0  0
    3.9430   -4.7450   -3.0860 C   0  0  0  0  0  0  0  0  0  0  0  0
    2.6970   -4.3770   -2.6120 C   0  0  0  0  0  0  0  0  0  0  0  0
    2.5810   -3.7510   -1.3850 C   0  0  0  0  0  0  0  0  0  0  0  0
    3.7100   -3.4980   -0.6290 C   0  0  0  0  0  0  0  0  0  0  0  0
    3.5840   -2.8160    0.7090 C   0  0  0  0  0  0  0  0  0  0  0  0
    3.6660   -1.3650    0.5260 N   0  0  0  0  0  0  0  0  0  0  0  0
    3.5760   -0.5450    1.5930 C   0  0  0  0  0  0  0  0  0  0  0  0
    3.4280   -1.0090    2.7040 O   0  0  0  0  0  0  0  0  0  0  0  0
    3.6610    0.9480    1.4050 C   0  0  2  0  0  0  0  0  0  0  0  0
    3.6580    1.5890    2.6820 O   0  0  0  0  0  0  0  0  0  0  0  0
    2.4580    1.4280    0.5900 C   0  0  2  0  0  0  0  0  0  0  0  0
    2.5440    2.9440    0.4000 C   0  0  0  0  0  0  0  0  0  0  0  0
    3.7600    3.2810   -0.4660 C   0  0  2  0  0  0  0  0  0  0  0  0
    3.9630    4.8120   -0.5410 C   0  0  0  0  0  0  0  0  0  0  0  0
    4.4470    4.9950   -1.9960 C   0  0  0  0  0  0  0  0  0  0  0  0
    3.9070    3.8480   -2.7350 N   0  0  0  0  0  0  0  0  0  0  0  0
    3.5190    2.8680   -1.9010 C   0  0  0  0  0  0  0  0  0  0  0  0
    3.0440    1.8070   -2.2480 O   0  0  0  0  0  0  0  0  0  0  0  0
    1.2220    1.0950    1.3020 N   0  0  0  0  0  0  0  0  0  0  0  0
    0.0830    0.8840    0.6120 C   0  0  0  0  0  0  0  0  0  0  0  0
    0.0600    1.0620   -0.5880 O   0  0  0  0  0  0  0  0  0  0  0  0
   -0.8900   -0.9130    2.0160 C   0  0  0  0  0  0  0  0  0  0  0  0
   -2.1100   -1.3150    2.8480 C   0  0  0  0  0  0  0  0  0  0  0  0
   -1.8900   -2.7120    3.4320 C   0  0  0  0  0  0  0  0  0  0  0  0
   -2.3050   -0.3110    3.9860 C   0  0  0  0  0  0  0  0  0  0  0  0
   -2.2520    0.2730    0.3670 N   0  0  0  0  0  0  0  0  0  0  0  0
  -10.3810    0.1930   -0.9120 H   0  0  0  0  0  0  0  0  0  0  0  0
   -1.4390    1.1690    2.0800 H   0  0  0  0  0  0  0  0  0  0  0  0
   -4.4040    0.0230   -1.2250 H   0  0  0  0  0  0  0  0  0  0  0  0
   -6.1250    0.5100    1.2640 H   0  0  0  0  0  0  0  0  0  0  0  0
   -8.5560    0.4550    0.7160 H   0  0  0  0  0  0  0  0  0  0  0  0
   -9.8730   -0.2570   -3.2760 H   0  0  0  0  0  0  0  0  0  0  0  0
   -7.5380   -0.4390   -4.0310 H   0  0  0  0  0  0  0  0  0  0  0  0
   -5.6960   -0.1710   -2.4240 H   0  0  0  0  0  0  0  0  0  0  0  0
    5.8390   -3.6600   -0.5160 H   0  0  0  0  0  0  0  0  0  0  0  0
    6.0450   -4.7740   -2.7010 H   0  0  0  0  0  0  0  0  0  0  0  0
    4.0330   -5.2340   -4.0440 H   0  0  0  0  0  0  0  0  0  0  0  0
    1.8140   -4.5780   -3.2010 H   0  0  0  0  0  0  0  0  0  0  0  0
    1.6080   -3.4630   -1.0160 H   0  0  0  0  0  0  0  0  0  0  0  0
    2.6240   -3.0720    1.1580 H   0  0  0  0  0  0  0  0  0  0  0  0
    4.3910   -3.1460    1.3630 H   0  0  0  0  0  0  0  0  0  0  0  0
    3.7840   -0.9930   -0.3620 H   0  0  0  0  0  0  0  0  0  0  0  0
    4.5810    1.1960    0.8760 H   0  0  0  0  0  0  0  0  0  0  0  0
    2.8670    1.4120    3.2100 H   0  0  0  0  0  0  0  0  0  0  0  0
    2.4610    0.9390   -0.3840 H   0  0  0  0  0  0  0  0  0  0  0  0
    1.6390    3.3000   -0.0910 H   0  0  0  0  0  0  0  0  0  0  0  0
    2.6450    3.4270    1.3720 H   0  0  0  0  0  0  0  0  0  0  0  0
    4.6530    2.7960   -0.0720 H   0  0  0  0  0  0  0  0  0  0  0  0
    3.0230    5.3390   -0.3730 H   0  0  0  0  0  0  0  0  0  0  0  0
    4.7230    5.1400    0.1680 H   0  0  0  0  0  0  0  0  0  0  0  0
    4.0590    5.9260   -2.4090 H   0  0  0  0  0  0  0  0  0  0  0  0
    5.5370    4.9910   -2.0340 H   0  0  0  0  0  0  0  0  0  0  0  0
    3.8400    3.8020   -3.7020 H   0  0  0  0  0  0  0  0  0  0  0  0
    1.2230    1.0250    2.2690 H   0  0  0  0  0  0  0  0  0  0  0  0
   -0.6980   -1.6750    1.2610 H   0  0  0  0  0  0  0  0  0  0  0  0
   -0.0210   -0.8200    2.6670 H   0  0  0  0  0  0  0  0  0  0  0  0
   -2.9960   -1.3220    2.2130 H   0  0  0  0  0  0  0  0  0  0  0  0
   -1.0040   -2.7050    4.0670 H   0  0  0  0  0  0  0  0  0  0  0  0
   -2.7590   -2.9990    4.0250 H   0  0  0  0  0  0  0  0  0  0  0  0
   -1.7510   -3.4270    2.6220 H   0  0  0  0  0  0  0  0  0  0  0  0
   -2.4610    0.6840    3.5690 H   0  0  0  0  0  0  0  0  0  0  0  0
   -3.1740   -0.5980    4.5780 H   0  0  0  0  0  0  0  0  0  0  0  0
   -1.4190   -0.3040    4.6200 H   0  0  0  0  0  0  0  0  0  0  0  0
   -2.0540    0.0990   -0.5670 H   0  0  0  0  0  0  0  0  0  0  0  0
 30 31  2  0  0  0  0
 29 30  1  0  0  0  0
 26 30  1  0  0  0  0
 28 29  1  0  0  0  0
 25 26  1  0  0  0  0
 24 25  1  0  0  0  0
 26 27  1  0  0  0  0
 20 21  2  0  0  0  0
  3  4  2  0  0  0  0
 36 37  1  0  0  0  0
 22 24  1  0  0  0  0
 20 22  1  0  0  0  0
 22 23  1  0  0  0  0
 24 32  1  0  0  0  0
 32 33  1  0  0  0  0
 27 28  1  0  0  0  0
 19 20  1  0  0  0  0
  2 33  1  0  0  0  0
  2 35  1  0  0  0  0
  2 39  1  0  0  0  0
  4 39  1  0  0  0  0
  4  5  1  0  0  0  0
 33 34  2  0  0  0  0
 35 36  1  0  0  0  0
 36 38  1  0  0  0  0
 18 19  1  0  0  0  0
  5  6  2  0  0  0  0
  6  7  1  0  0  0  0
  7 11  2  0  0  0  0
 10 11  1  0  0  0  0
 17 18  1  0  0  0  0
  7  8  1  0  0  0  0
  9 10  2  0  0  0  0
 12 17  2  0  0  0  0
 16 17  1  0  0  0  0
 12 13  1  0  0  0  0
  1  8  2  0  0  0  0
  1  9  1  0  0  0  0
 15 16  2  0  0  0  0
 13 14  2  0  0  0  0
 14 15  1  0  0  0  0
  1 40  1  0  0  0  0
  2 41  1  0  0  0  0
  5 42  1  0  0  0  0
  6 43  1  0  0  0  0
  8 44  1  0  0  0  0
  9 45  1  0  0  0  0
 10 46  1  0  0  0  0
 11 47  1  0  0  0  0
 12 48  1  0  0  0  0
 13 49  1  0  0  0  0
 14 50  1  0  0  0  0
 15 51  1  0  0  0  0
 16 52  1  0  0  0  0
 18 53  1  0  0  0  0
 18 54  1  0  0  0  0
 19 55  1  0  0  0  0
 22 56  1  0  0  0  0
 23 57  1  0  0  0  0
 24 58  1  0  0  0  0
 25 59  1  0  0  0  0
 25 60  1  0  0  0  0
 26 61  1  0  0  0  0
 27 62  1  0  0  0  0
 27 63  1  0  0  0  0
 28 64  1  0  0  0  0
 28 65  1  0  0  0  0
 29 66  1  0  0  0  0
 32 67  1  0  0  0  0
 35 68  1  0  0  0  0
 35 69  1  0  0  0  0
 36 70  1  0  0  0  0
 37 71  1  0  0  0  0
 37 72  1  0  0  0  0
 37 73  1  0  0  0  0
 38 74  1  0  0  0  0
 38 75  1  0  0  0  0
 38 76  1  0  0  0  0
 39 77  1  0  0  0  0
M  END
> <OPENEYE_ISO_SMILES>
CC(C)C[C@@H](C(=O)N[C@@H](C[C@@H]1CCNC1=O)[C@H](C(=O)NCc2ccccc2)O)NC(=O)/C=C/c3ccccc3

> <OPENEYE_INCHI>
InChI=1S/C30H38N4O5/c1-20(2)17-25(33-26(35)14-13-21-9-5-3-6-10-21)29(38)34-24(18-23-15-16-31-28(23)37)27(36)30(39)32-19-22-11-7-4-8-12-22/h3-14,20,23-25,27,36H,15-19H2,1-2H3,(H,31,37)(H,32,39)(H,33,35)(H,34,38)/b14-13+/t23-,24-,25-,27+/m0/s1

> <OPENEYE_INCHIKEY>
VGTVWUUFUCDHSP-BXCMFHCISA-N

> <FORMULA>
C30H38N4O5

$$$$
