3HP
  -OEChem-02242320003D

 19 19  0     0  0  0  0  0  0999 V2000
   -0.1850    0.1360    2.3850 C   0  0  0  0  0  0  0  0  0  0  0  0
   -0.2040    1.2560    1.9310 O   0  0  0  0  0  0  0  0  0  0  0  0
   -0.4040   -0.0600    3.6940 O   0  0  0  0  0  0  0  0  0  0  0  0
    0.0820   -1.0380    1.4800 C   0  0  0  0  0  0  0  0  0  0  0  0
    0.2920   -0.5490    0.0710 C   0  0  0  0  0  0  0  0  0  0  0  0
   -0.7830   -0.4360   -0.7870 C   0  0  0  0  0  0  0  0  0  0  0  0
   -0.5890    0.0190   -2.0840 C   0  0  0  0  0  0  0  0  0  0  0  0
    0.6860    0.3490   -2.5170 C   0  0  0  0  0  0  0  0  0  0  0  0
    1.7600    0.2280   -1.6560 C   0  0  0  0  0  0  0  0  0  0  0  0
    1.5630   -0.2200   -0.3630 C   0  0  0  0  0  0  0  0  0  0  0  0
   -1.6460    0.1360   -2.9290 O   0  0  0  0  0  0  0  0  0  0  0  0
   -0.5760    0.6930    4.2750 H   0  0  0  0  0  0  0  0  0  0  0  0
    0.9750   -1.5620    1.8200 H   0  0  0  0  0  0  0  0  0  0  0  0
   -0.7690   -1.7180    1.5060 H   0  0  0  0  0  0  0  0  0  0  0  0
   -1.7750   -0.6930   -0.4480 H   0  0  0  0  0  0  0  0  0  0  0  0
    0.8400    0.7000   -3.5270 H   0  0  0  0  0  0  0  0  0  0  0  0
    2.7530    0.4840   -1.9930 H   0  0  0  0  0  0  0  0  0  0  0  0
    2.4040   -0.3140    0.3080 H   0  0  0  0  0  0  0  0  0  0  0  0
   -1.7350   -0.7100   -3.3860 H   0  0  0  0  0  0  0  0  0  0  0  0
  1  2  2  0  0  0  0
  1  3  1  0  0  0  0
  1  4  1  0  0  0  0
  3 12  1  0  0  0  0
  4  5  1  0  0  0  0
  4 13  1  0  0  0  0
  4 14  1  0  0  0  0
  5  6  1  0  0  0  0
  5 10  2  0  0  0  0
  6  7  2  0  0  0  0
  6 15  1  0  0  0  0
  7  8  1  0  0  0  0
  7 11  1  0  0  0  0
  8  9  2  0  0  0  0
  8 16  1  0  0  0  0
  9 10  1  0  0  0  0
  9 17  1  0  0  0  0
 10 18  1  0  0  0  0
 11 19  1  0  0  0  0
M  END
> <OPENEYE_ISO_SMILES>
c1cc(cc(c1)O)CC(=O)O

> <OPENEYE_INCHI>
InChI=1S/C8H8O3/c9-7-3-1-2-6(4-7)5-8(10)11/h1-4,9H,5H2,(H,10,11)

> <OPENEYE_INCHIKEY>
FVMDYYGIDFPZAX-UHFFFAOYSA-N

> <FORMULA>
C8H8O3

$$$$
