EKZ
  -OEChem-02242320023D

 26 26  0     0  0  0  0  0  0999 V2000
    2.5930    0.8550    1.2460 C   0  0  0  0  0  0  0  0  0  0  0  0
    2.1800    0.0770   -0.0050 C   0  0  0  0  0  0  0  0  0  0  0  0
    2.5740    0.8720   -1.2520 C   0  0  0  0  0  0  0  0  0  0  0  0
    2.8880   -1.2790   -0.0200 C   0  0  0  0  0  0  0  0  0  0  0  0
    0.6880   -0.1350    0.0050 C   0  0  0  0  0  0  0  0  0  0  0  0
   -0.1630    0.9540    0.0190 C   0  0  0  0  0  0  0  0  0  0  0  0
   -1.5350    0.7610    0.0290 C   0  0  0  0  0  0  0  0  0  0  0  0
   -2.3740    1.8310    0.0420 O   0  0  0  0  0  0  0  0  0  0  0  0
   -2.0530   -0.5320    0.0230 C   0  0  0  0  0  0  0  0  0  0  0  0
   -3.3980   -0.7270    0.0320 O   0  0  0  0  0  0  0  0  0  0  0  0
   -1.1940   -1.6180    0.0090 C   0  0  0  0  0  0  0  0  0  0  0  0
    0.1740   -1.4180   -0.0050 C   0  0  0  0  0  0  0  0  0  0  0  0
    2.0890    1.8210    1.2570 H   0  0  0  0  0  0  0  0  0  0  0  0
    2.3130    0.2890    2.1350 H   0  0  0  0  0  0  0  0  0  0  0  0
    3.6720    1.0080    1.2390 H   0  0  0  0  0  0  0  0  0  0  0  0
    3.6530    1.0250   -1.2600 H   0  0  0  0  0  0  0  0  0  0  0  0
    2.2790    0.3180   -2.1440 H   0  0  0  0  0  0  0  0  0  0  0  0
    2.0690    1.8380   -1.2420 H   0  0  0  0  0  0  0  0  0  0  0  0
    2.6080   -1.8450    0.8680 H   0  0  0  0  0  0  0  0  0  0  0  0
    2.5940   -1.8330   -0.9110 H   0  0  0  0  0  0  0  0  0  0  0  0
    3.9670   -1.1250   -0.0270 H   0  0  0  0  0  0  0  0  0  0  0  0
    0.2410    1.9560    0.0240 H   0  0  0  0  0  0  0  0  0  0  0  0
   -2.6240    2.1460   -0.8370 H   0  0  0  0  0  0  0  0  0  0  0  0
   -3.7940   -0.7770   -0.8490 H   0  0  0  0  0  0  0  0  0  0  0  0
   -1.5930   -2.6220    0.0060 H   0  0  0  0  0  0  0  0  0  0  0  0
    0.8430   -2.2660   -0.0170 H   0  0  0  0  0  0  0  0  0  0  0  0
  9 10  1  0  0  0  0
  9 11  2  0  0  0  0
 11 12  1  0  0  0  0
  7  9  1  0  0  0  0
  5 12  2  0  0  0  0
  1  2  1  0  0  0  0
  7  8  1  0  0  0  0
  6  7  2  0  0  0  0
  2  5  1  0  0  0  0
  5  6  1  0  0  0  0
  2  3  1  0  0  0  0
  2  4  1  0  0  0  0
  1 13  1  0  0  0  0
  1 14  1  0  0  0  0
  1 15  1  0  0  0  0
  3 16  1  0  0  0  0
  3 17  1  0  0  0  0
  3 18  1  0  0  0  0
  4 19  1  0  0  0  0
  4 20  1  0  0  0  0
  4 21  1  0  0  0  0
  6 22  1  0  0  0  0
  8 23  1  0  0  0  0
 10 24  1  0  0  0  0
 11 25  1  0  0  0  0
 12 26  1  0  0  0  0
M  END
> <OPENEYE_ISO_SMILES>
CC(C)(C)c1ccc(c(c1)O)O

> <OPENEYE_INCHI>
InChI=1S/C10H14O2/c1-10(2,3)7-4-5-8(11)9(12)6-7/h4-6,11-12H,1-3H3

> <OPENEYE_INCHIKEY>
XESZUVZBAMCAEJ-UHFFFAOYSA-N

> <FORMULA>
C10H14O2

$$$$
