J7R
  -OEChem-02242320023D

 58 61  0     1  0  0  0  0  0999 V2000
   -2.6140   -3.4240    0.1690 N   0  0  0  0  0  0  0  0  0  0  0  0
   -0.5460    0.2130    0.0010 N   0  0  0  0  0  0  0  0  0  0  0  0
   -4.0120   -0.9570    0.5000 C   0  0  0  0  0  0  0  0  0  0  0  0
   -4.6690    0.2500    0.6050 C   0  0  0  0  0  0  0  0  0  0  0  0
   -3.9650    1.4410    0.5090 C   0  0  0  0  0  0  0  0  0  0  0  0
   -2.6010    1.4320    0.3070 C   0  0  0  0  0  0  0  0  0  0  0  0
   -1.9210    0.2250    0.1990 C   0  0  0  0  0  0  0  0  0  0  0  0
   -0.2500   -1.0610   -2.0690 C   0  0  0  0  0  0  0  0  0  0  0  0
    1.5200    1.0480   -3.0690 C   0  0  0  0  0  0  0  0  0  0  0  0
    3.3250    0.5790   -0.4840 C   0  0  0  0  0  0  0  0  0  0  0  0
    4.0680   -1.6480    0.3610 C   0  0  0  0  0  0  0  0  0  0  0  0
    7.7120   -0.1860    1.7730 C   0  0  0  0  0  0  0  0  0  0  0  0
    8.0210    1.1330    1.6280 C   0  0  0  0  0  0  0  0  0  0  0  0
    7.1370    2.0160    1.0130 C   0  0  0  0  0  0  0  0  0  0  0  0
    5.5850    0.2390    0.6670 C   0  0  0  0  0  0  0  0  0  0  0  0
   -1.9070   -4.7030    0.0620 C   0  0  0  0  0  0  0  0  0  0  0  0
    0.0900   -0.9420   -3.5560 C   0  0  0  0  0  0  0  0  0  0  0  0
    1.4880   -0.3400   -3.7130 C   0  0  0  0  0  0  0  0  0  0  0  0
    1.1790    0.9290   -1.5830 C   0  0  1  0  0  0  0  0  0  0  0  0
    4.3130   -0.2930    0.1790 C   0  0  0  0  0  0  0  0  0  0  0  0
    6.1050   -2.0110    1.4170 C   0  0  0  0  0  0  0  0  0  0  0  0
    6.4830   -0.6640    1.2930 C   0  0  0  0  0  0  0  0  0  0  0  0
   -1.9180   -2.2700    0.2000 C   0  0  0  0  0  0  0  0  0  0  0  0
    5.9340    1.5850    0.5360 C   0  0  0  0  0  0  0  0  0  0  0  0
   -2.6290   -0.9830    0.3010 C   0  0  0  0  0  0  0  0  0  0  0  0
   -0.2190    0.3270   -1.4260 C   0  0  2  0  0  0  0  0  0  0  0  0
   -1.8600    2.7090    0.2050 N   0  3  0  0  0  0  0  0  0  0  0  0
    2.1600    0.0640   -0.9240 N   0  0  0  0  0  0  0  0  0  0  0  0
    4.9500   -2.4310    0.9590 N   0  0  0  0  0  0  0  0  0  0  0  0
   -0.7030   -2.2920    0.1450 O   0  0  0  0  0  0  0  0  0  0  0  0
   -2.4660    3.7660    0.1960 O   0  0  0  0  0  0  0  0  0  0  0  0
   -0.6440    2.7040    0.1300 O   0  5  0  0  0  0  0  0  0  0  0  0
    3.5620    1.7620   -0.6320 O   0  0  0  0  0  0  0  0  0  0  0  0
   -6.5390    0.2820    0.8810 Br  0  0  0  0  0  0  0  0  0  0  0  0
   -3.5830   -3.4070    0.2130 H   0  0  0  0  0  0  0  0  0  0  0  0
   -0.1300   -0.6140    0.4030 H   0  0  0  0  0  0  0  0  0  0  0  0
   -4.5640   -1.8820    0.5750 H   0  0  0  0  0  0  0  0  0  0  0  0
   -4.4890    2.3820    0.5930 H   0  0  0  0  0  0  0  0  0  0  0  0
   -1.2460   -1.4900   -1.9580 H   0  0  0  0  0  0  0  0  0  0  0  0
    0.4800   -1.7050   -1.5800 H   0  0  0  0  0  0  0  0  0  0  0  0
    2.5160    1.4770   -3.1810 H   0  0  0  0  0  0  0  0  0  0  0  0
    0.7900    1.6920   -3.5590 H   0  0  0  0  0  0  0  0  0  0  0  0
    3.1370   -2.0690    0.0120 H   0  0  0  0  0  0  0  0  0  0  0  0
    8.4080   -0.8590    2.2520 H   0  0  0  0  0  0  0  0  0  0  0  0
    8.9670    1.5000    1.9980 H   0  0  0  0  0  0  0  0  0  0  0  0
    7.4080    3.0570    0.9130 H   0  0  0  0  0  0  0  0  0  0  0  0
   -2.6310   -5.5180    0.0470 H   0  0  0  0  0  0  0  0  0  0  0  0
   -1.3220   -4.7200   -0.8570 H   0  0  0  0  0  0  0  0  0  0  0  0
   -1.2430   -4.8240    0.9180 H   0  0  0  0  0  0  0  0  0  0  0  0
    0.0680   -1.9310   -4.0140 H   0  0  0  0  0  0  0  0  0  0  0  0
   -0.6400   -0.2980   -4.0460 H   0  0  0  0  0  0  0  0  0  0  0  0
    1.7310   -0.2550   -4.7720 H   0  0  0  0  0  0  0  0  0  0  0  0
    2.2180   -0.9840   -3.2230 H   0  0  0  0  0  0  0  0  0  0  0  0
    1.2020    1.9180   -1.1250 H   0  0  0  0  0  0  0  0  0  0  0  0
    6.7750   -2.7100    1.8950 H   0  0  0  0  0  0  0  0  0  0  0  0
    5.2560    2.2790    0.0610 H   0  0  0  0  0  0  0  0  0  0  0  0
   -0.9490    0.9710   -1.9160 H   0  0  0  0  0  0  0  0  0  0  0  0
    1.9720   -0.8810   -0.8050 H   0  0  0  0  0  0  0  0  0  0  0  0
 10 33  2  0  0  0  0
 13 14  2  0  0  0  0
 12 13  1  0  0  0  0
 14 24  1  0  0  0  0
 12 22  2  0  0  0  0
 15 24  2  0  0  0  0
 15 22  1  0  0  0  0
 21 22  1  0  0  0  0
 15 20  1  0  0  0  0
 21 29  2  0  0  0  0
 10 20  1  0  0  0  0
 11 20  2  0  0  0  0
 11 29  1  0  0  0  0
 10 28  1  0  0  0  0
  9 19  1  0  0  0  0
  9 18  1  0  0  0  0
 19 28  1  0  0  0  0
 19 26  1  0  0  0  0
 17 18  1  0  0  0  0
  8 17  1  0  0  0  0
  8 26  1  0  0  0  0
  2 26  1  0  0  0  0
  1 16  1  0  0  0  0
 23 30  2  0  0  0  0
  2  7  1  0  0  0  0
  1 23  1  0  0  0  0
 23 25  1  0  0  0  0
 27 32  1  0  0  0  0
  7 25  2  0  0  0  0
  6  7  1  0  0  0  0
  3 25  1  0  0  0  0
  6 27  1  0  0  0  0
 27 31  2  0  0  0  0
  5  6  2  0  0  0  0
  3  4  2  0  0  0  0
  4  5  1  0  0  0  0
  4 34  1  0  0  0  0
  1 35  1  0  0  0  0
  2 36  1  0  0  0  0
  3 37  1  0  0  0  0
  5 38  1  0  0  0  0
  8 39  1  0  0  0  0
  8 40  1  0  0  0  0
  9 41  1  0  0  0  0
  9 42  1  0  0  0  0
 11 43  1  0  0  0  0
 12 44  1  0  0  0  0
 13 45  1  0  0  0  0
 14 46  1  0  0  0  0
 16 47  1  0  0  0  0
 16 48  1  0  0  0  0
 16 49  1  0  0  0  0
 17 50  1  0  0  0  0
 17 51  1  0  0  0  0
 18 52  1  0  0  0  0
 18 53  1  0  0  0  0
 19 54  1  0  0  0  0
 21 55  1  0  0  0  0
 24 56  1  0  0  0  0
 26 57  1  0  0  0  0
 28 58  1  0  0  0  0
M  CHG  2  27   1  32  -1
M  END
> <OPENEYE_ISO_SMILES>
CNC(=O)c1cc(cc(c1N[C@@H]2CCCC[C@@H]2NC(=O)c3cncc4c3cccc4)[N+](=O)[O-])Br

> <OPENEYE_INCHI>
InChI=1S/C24H24BrN5O4/c1-26-23(31)17-10-15(25)11-21(30(33)34)22(17)28-19-8-4-5-9-20(19)29-24(32)18-13-27-12-14-6-2-3-7-16(14)18/h2-3,6-7,10-13,19-20,28H,4-5,8-9H2,1H3,(H,26,31)(H,29,32)/t19-,20+/m1/s1

> <OPENEYE_INCHIKEY>
BPLNOSFMIIASSJ-UXHICEINSA-N

> <FORMULA>
C24H24BrN5O4

$$$$
