@<TRIPOS>MOLECULE
/home/pku/3cl/gett_pdb/5RU8/5RU8_mol2/ligand/5RU8_1SQ.pdb
 19 20 0 0 0
SMALL
GASTEIGER

@<TRIPOS>ATOM
      1  N1       -47.7790  -28.8090    7.4080 N.pl3 201  1SQ201     -0.3427
      2  C2       -46.5160  -29.0570    6.7550 C.ar  201  1SQ201      0.1239
      3  N3       -45.4240  -29.1840    7.4890 N.ar  201  1SQ201     -0.2401
      4  C4       -44.2390  -29.4020    6.9360 C.ar  201  1SQ201      0.0303
      5  C5       -44.1190  -29.5250    5.5600 C.ar  201  1SQ201     -0.0357
      6  C6       -45.2740  -29.4000    4.7320 C.ar  201  1SQ201     -0.0132
      7  C7       -45.1840  -29.5090    3.3150 C.ar  201  1SQ201     -0.0539
      8  C8       -46.3240  -29.3850    2.5310 C.ar  201  1SQ201     -0.0612
      9  C9       -47.5470  -29.1270    3.1420 C.ar  201  1SQ201     -0.0611
     10  C10      -47.6340  -29.0210    4.5180 C.ar  201  1SQ201     -0.0508
     11  C11      -46.4760  -29.1540    5.3360 C.ar  201  1SQ201      0.0217
     12 HN11      -48.3010  -29.4650    7.5980 H     201  1SQ201      0.1437
     13 HN12      -48.0100  -28.0050    7.6070 H     201  1SQ201      0.1437
     14  H4       -43.4880  -29.4980    7.4760 H     201  1SQ201      0.0830
     15  H5       -43.2870  -29.6880    5.1780 H     201  1SQ201      0.0639
     16  H7       -44.3600  -29.6680    2.9140 H     201  1SQ201      0.0624
     17  H8       -46.2660  -29.4470    1.6050 H     201  1SQ201      0.0618
     18  H9       -48.3090  -29.0380    2.6290 H     201  1SQ201      0.0618
     19  H10      -48.4600  -28.8630    4.9150 H     201  1SQ201      0.0625
@<TRIPOS>BOND
     1    17     8    1
     2     8     9   ar
     3     8     7   ar
     4    18     9    1
     5    16     7    1
     6     9    10   ar
     7     7     6   ar
     8    10    19    1
     9    10    11   ar
    10     6    11   ar
    11     6     5   ar
    12    15     5    1
    13    11     2   ar
    14     5     4   ar
    15     2     1    1
    16     2     3   ar
    17     4    14    1
    18     4     3   ar
    19     1    12    1
    20     1    13    1
