@<TRIPOS>MOLECULE
/home/pku/3cl/gett_pdb/5RVD/5RVD_mol2/ligand/5RVD_W7Y.pdb
 36 39 0 0 0
SMALL
GASTEIGER

@<TRIPOS>ATOM
      1  C10      -45.4180  -29.2740    4.0160 C.3   201  W7Y201      0.1877
      2  C17      -47.9800  -28.9290    4.5090 C.ar  201  W7Y201     -0.0355
      3  C01      -43.2380  -32.8960    1.2220 C.3   201  W7Y201     -0.0525
      4  C02      -44.5560  -32.1860    1.4970 C.3   201  W7Y201     -0.0488
      5  C03      -43.7690  -31.0050    2.0220 C.3   201  W7Y201     -0.0253
      6  C04      -42.6030  -31.5190    1.2120 C.3   201  W7Y201     -0.0488
      7  C05      -44.3570  -29.5560    1.8900 C.3   201  W7Y201      0.0158
      8  C06      -44.7980  -29.1810    0.3360 C.3   201  W7Y201     -0.0358
      9  C07      -46.1080  -29.0260    0.3110 C.3   201  W7Y201     -0.0387
     10  C08      -46.6750  -29.1350    1.7770 C.3   201  W7Y201      0.0018
     11  C12      -44.2210  -29.2980    5.9210 C.2   201  W7Y201      0.1048
     12  C14      -46.4380  -29.0280    6.1270 C.ar  201  W7Y201      0.1286
     13  C16      -48.6020  -28.7620    5.7420 C.ar  201  W7Y201      0.0038
     14  C18      -46.5960  -29.0860    4.7760 C.ar  201  W7Y201      0.0397
     15  N09      -45.4170  -29.3780    2.6360 N.3   201  W7Y201     -0.2682
     16  N11      -44.3110  -29.3800    4.6140 N.2   201  W7Y201     -0.2431
     17  N13      -45.2430  -29.1060    6.6970 N.pl3 201  W7Y201     -0.1859
     18  N15      -47.6700  -28.8790    6.6650 N.ar  201  W7Y201     -0.3479
     19 H171      -48.3910  -28.9430    3.6750 H     201  W7Y201      0.0637
     20 H011      -42.9420  -33.4490    1.9620 H     201  W7Y201      0.0265
     21 H012      -43.2170  -33.3320    0.3560 H     201  W7Y201      0.0265
     22 H021      -45.0840  -32.6240    2.1830 H     201  W7Y201      0.0268
     23 H022      -45.0480  -31.9810    0.6870 H     201  W7Y201      0.0268
     24 H031      -43.5750  -31.1690    2.9580 H     201  W7Y201      0.0316
     25 H042      -42.5630  -31.1300    0.3250 H     201  W7Y201      0.0268
     26 H041      -41.7640  -31.4890    1.6990 H     201  W7Y201      0.0268
     27 H051      -43.6770  -28.9240    2.1710 H     201  W7Y201      0.0466
     28 H062      -44.3560  -28.3680    0.0460 H     201  W7Y201      0.0281
     29 H061      -44.5050  -29.9330   -0.1880 H     201  W7Y201      0.0281
     30 H071      -46.5550  -29.7390   -0.1610 H     201  W7Y201      0.0278
     31 H072      -46.3310  -28.1640   -0.0670 H     201  W7Y201      0.0278
     32 H081      -47.2830  -29.8860    1.8500 H     201  W7Y201      0.0427
     33 H082      -47.1080  -28.3060    2.0320 H     201  W7Y201      0.0427
     34 H121      -43.3820  -29.3770    6.3110 H     201  W7Y201      0.1015
     35 H161      -49.5150  -28.6660    5.8900 H     201  W7Y201      0.0807
     36 H151      -47.8130  -28.7680    7.5060 H     201  W7Y201      0.1666
@<TRIPOS>BOND
     1    29     8    1
     2    30     9    1
     3    31     9    1
     4    28     8    1
     5     9     8    1
     6     9    10    1
     7    25     6    1
     8     8     7    1
     9    21     3    1
    10    23     4    1
    11     6     3    1
    12     6    26    1
    13     6     5    1
    14     3     4    1
    15     3    20    1
    16     4     5    1
    17     4    22    1
    18    10    32    1
    19    10    33    1
    20    10    15    1
    21     7     5    1
    22     7    27    1
    23     7    15    1
    24     5    24    1
    25    15     1    1
    26    19     2    1
    27     1    16    1
    28     1    14    1
    29     2    14   ar
    30     2    13   ar
    31    16    11    2
    32    14    12   ar
    33    13    35    1
    34    13    18   ar
    35    11    34    1
    36    11    17    1
    37    12    18   ar
    38    12    17    1
    39    18    36    1
