@<TRIPOS>MOLECULE
/home/pku/3cl/gett_pdb/7K40/7K40_mol2/ligand/7K40_U5G.pdb
 37 39 0 0 0
SMALL
GASTEIGER

@<TRIPOS>ATOM
      1  C28       12.2050  -21.6330   22.9920 C.2   401  U5G401      0.3395
      2  N29       12.7370  -20.6100   22.2050 N.am  401  U5G401     -0.1906
      3  O34       12.5090  -21.8510   24.1310 O.2   401  U5G401     -0.2492
      4  C30       13.9580  -19.8470   22.5380 C.3   401  U5G401      0.0804
      5  C31       15.0970  -20.9260   22.4000 C.3   401  U5G401      0.0218
      6  C32       14.0430  -18.7830   21.4460 C.3   401  U5G401      0.0218
      7  C33       13.9780  -19.2700   23.9320 C.3   401  U5G401      0.0218
      8  N27       11.1400  -22.2940   22.3730 N.am  401  U5G401     -0.1796
      9  C22       10.4700  -23.3410   23.0500 C.3   401  U5G401      0.1727
     10  C23        8.9830  -23.0480   23.3350 C.3   401  U5G401      0.0270
     11  C24        8.3080  -24.2720   23.9930 C.3   401  U5G401      0.0022
     12  C25        8.1590  -22.6940   22.0690 C.3   401  U5G401      0.0022
     13  C26        8.9370  -21.8570   24.3330 C.3   401  U5G401      0.0022
     14  C21       10.5940  -24.5830   22.1960 C.2   401  U5G401      0.2459
     15  O35       10.2380  -24.6440   21.0000 O.2   401  U5G401     -0.2730
     16  N20       11.0550  -25.7750   22.7700 N.am  401  U5G401     -0.2716
     17  C19       11.4960  -25.9030   24.1200 C.3   401  U5G401      0.0939
     18  C13       11.1450  -27.0680   22.0300 C.3   401  U5G401      0.1535
     19  C14       12.0890  -27.8650   22.8010 C.3   401  U5G401      0.0289
     20  C15       12.2900  -27.1830   24.1610 C.3   401  U5G401      0.0220
     21  C16       13.4900  -27.4910   23.2640 C.3   401  U5G401      0.0037
     22  C17       14.0930  -26.3140   22.4960 C.3   401  U5G401      0.0001
     23  C18       14.4300  -28.6360   23.6230 C.3   401  U5G401      0.0001
     24  C12        9.7610  -27.5880   21.9760 C.2   401  U5G401      0.2595
     25  O36        9.0580  -27.5930   22.9890 O.2   401  U5G401     -0.2716
     26  N11        9.3540  -28.1370   20.7380 N.am  401  U5G401     -0.2027
     27  C05        8.0110  -28.6430   20.6200 C.3   401  U5G401      0.1347
     28  C06        7.1550  -27.7920   19.6940 C.3   401  U5G401      0.0248
     29  C07        6.7510  -26.5770   20.5790 C.3   401  U5G401      0.0018
     30  C10        5.9040  -26.7110   21.8660 C.3   401  U5G401      0.0001
     31  C08        5.6880  -25.7180   19.9980 C.3   401  U5G401      0.0001
     32  C09        5.2050  -25.4280   21.4370 C.3   401  U5G401      0.0000
     33  O04        8.9490  -30.8340   21.1530 O.3   401  U5G401     -0.2113
     34  C03        8.1150  -30.1320   20.3310 C.3   401  U5G401      0.2503
     35  O01        5.9790  -30.7860   19.4640 O.2   401  U5G401     -0.2688
     36  C02        6.8350  -30.8780   20.2580 C.2   401  U5G401      0.2929
     37  N37        6.5810  -31.6980   21.4180 N.am  401  U5G401     -0.0855
@<TRIPOS>BOND
     1    35    36    2
     2    28    29    1
     3    28    27    1
     4    31    29    1
     5    31    32    1
     6    36    34    1
     7    36    37   am
     8    34    27    1
     9    34    33    1
    10    29    30    1
    11    27    26    1
    12    26    24   am
    13    15    14    2
    14    32    30    1
    15     6     4    1
    16    24    18    1
    17    24    25    2
    18    18    16    1
    19    18    19    1
    20    12    10    1
    21    14    16   am
    22    14     9    1
    23     2     4    1
    24     2     1   am
    25     8     1   am
    26     8     9    1
    27     5     4    1
    28    22    21    1
    29     4     7    1
    30    16    17    1
    31    19    21    1
    32    19    20    1
    33     1     3    2
    34     9    10    1
    35    21    23    1
    36    21    20    1
    37    10    11    1
    38    10    13    1
    39    17    20    1
