@<TRIPOS>MOLECULE
/home/pku/3cl/gett_pdb/7SF3/7SF3_mol2/ligand/7SF3_90H.pdb
 39 41 0 0 0
SMALL
GASTEIGER

@<TRIPOS>ATOM
      1  N1        19.6710   16.0170   27.3240 N.am  401  90H401     -0.2716
      2  N3        18.1370   13.7230   25.0950 N.am  401  90H401     -0.2027
      3  C4        20.7980   17.4180   25.7960 C.3   401  90H401      0.0220
      4  C5        19.6090   18.2070   25.3330 C.3   401  90H401      0.0037
      5  C6        18.6730   18.8480   26.3450 C.3   401  90H401      0.0001
      6  C7        19.8030   19.0350   24.0730 C.3   401  90H401      0.0001
      7  C8        20.8050   16.9550   27.2260 C.3   401  90H401      0.0939
      8  C10       19.9690   15.6110   29.7080 C.3   401  90H401      0.1714
      9  C13       21.5240   13.7620   29.1780 C.3   401  90H401      0.0022
     10  C15       19.4770   17.5000   31.1610 C.2   401  90H401      0.3371
     11  C17       18.1290   12.3800   24.5110 C.3   401  90H401      0.1351
     12  C20       19.7290   10.4220   20.4400 C.3   401  90H401      0.1386
     13  C21       17.0710   11.5420   25.2380 C.3   401  90H401      0.0340
     14  C22       17.4140   11.3200   26.7100 C.3   401  90H401      0.0818
     15  C24       18.3870    9.7390   28.2610 C.3   401  90H401      0.1156
     16  O1        20.2970   13.7860   25.7840 O.2   401  90H401     -0.2716
     17  C1        19.2120   14.3230   25.6200 C.2   401  90H401      0.2595
     18  C2        19.0030   15.7640   26.0500 C.3   401  90H401      0.1535
     19  C3        19.6620   16.7140   25.0730 C.3   401  90H401      0.0289
     20  C9        19.1870   15.4270   28.4240 C.2   401  90H401      0.2458
     21  C11       20.5920   14.3260   30.2490 C.3   401  90H401      0.0269
     22  C12       19.5600   13.2630   30.6260 C.3   401  90H401      0.0022
     23  C14       21.4160   14.6670   31.5050 C.3   401  90H401      0.0022
     24  N2        19.1400   16.3060   30.6680 N.am  401  90H401     -0.1908
     25  C16       18.4510   18.1260   32.1040 C.3   401  90H401      0.4711
     26  F1        18.7670   17.9340   33.3640 F     401  90H401     -0.1620
     27  F2        18.3050   19.4200   31.9060 F     401  90H401     -0.1620
     28  F3        17.2630   17.6030   31.9300 F     401  90H401     -0.1620
     29  O2        20.4950   18.1170   30.8910 O.2   401  90H401     -0.2642
     30  O3        18.1460   14.7710   28.3780 O.2   401  90H401     -0.2730
     31  C18       17.9080   12.5430   22.9840 C.3   401  90H401      0.2487
     32  O4        18.8420   13.5120   22.5460 O.3   401  90H401     -0.2113
     33  C19       18.2660   11.3010   22.1980 C.2   401  90H401      0.2737
     34  N4        19.2370   11.4660   21.3090 N.am  401  90H401     -0.2013
     35  O5        17.6610   10.2640   22.3930 O.2   401  90H401     -0.2705
     36  C23       18.7000   10.5580   27.0150 C.3   401  90H401      0.0326
     37  N5        16.9420    9.5860   28.1800 N.am  401  90H401     -0.2054
     38  C25       16.3510   10.5320   27.4450 C.2   401  90H401      0.2410
     39  O6        15.1530   10.7590   27.3880 O.2   401  90H401     -0.2734
@<TRIPOS>BOND
     1    12    34    1
     2    34    33   am
     3    33    35    2
     4    33    31    1
     5    32    31    1
     6    31    11    1
     7     6     4    1
     8    11     2    1
     9    11    13    1
    10    19     4    1
    11    19     3    1
    12    19    18    1
    13     2    17   am
    14    13    14    1
    15     4     3    1
    16     4     5    1
    17    17    16    2
    18    17    18    1
    19     3     7    1
    20    18     1    1
    21    14    36    1
    22    14    38    1
    23    36    15    1
    24     7     1    1
    25     1    20   am
    26    39    38    2
    27    38    37   am
    28    37    15    1
    29    30    20    2
    30    20     8    1
    31     9    21    1
    32     8    21    1
    33     8    24    1
    34    21    22    1
    35    21    23    1
    36    24    10   am
    37    29    10    2
    38    10    25    1
    39    27    25    1
    40    28    25    1
    41    25    26    1
