2CL
  -OEChem-02242320003D

 18 18  0     0  0  0  0  0  0999 V2000
    2.8780   -1.6520    2.0020 C   0  0  0  0  0  0  0  0  0  0  0  0
    2.9210   -1.6310    0.6080 C   0  0  0  0  0  0  0  0  0  0  0  0
    1.8850   -1.0360   -0.1120 C   0  0  0  0  0  0  0  0  0  0  0  0
    0.8070   -0.4630    0.5610 C   0  0  0  0  0  0  0  0  0  0  0  0
    0.7640   -0.4840    1.9550 C   0  0  0  0  0  0  0  0  0  0  0  0
    1.8000   -1.0790    2.6760 C   0  0  0  0  0  0  0  0  0  0  0  0
    3.9910   -2.2910    2.7760 C   0  0  0  0  0  0  0  0  0  0  0  0
    3.7090   -3.7510    3.0140 C   0  0  0  0  0  0  0  0  0  0  0  0
    4.2370   -2.3280   -0.2660 Cl  0  0  0  0  0  0  0  0  0  0  0  0
    1.7060   -1.0830    4.4000 Cl  0  0  0  0  0  0  0  0  0  0  0  0
    2.6720   -4.3100    2.6810 O   0  0  0  0  0  0  0  0  0  0  0  0
    4.7190   -4.3820    3.6630 O   0  0  0  0  0  0  0  0  0  0  0  0
    1.9040   -1.0090   -1.1990 H   0  0  0  0  0  0  0  0  0  0  0  0
    0.0000    0.0000   -0.0000 H   0  0  0  0  0  0  0  0  0  0  0  0
   -0.0840   -0.0320    2.4640 H   0  0  0  0  0  0  0  0  0  0  0  0
    4.1610   -1.7820    3.7300 H   0  0  0  0  0  0  0  0  0  0  0  0
    4.9380   -2.2120    2.2320 H   0  0  0  0  0  0  0  0  0  0  0  0
    4.5650   -5.3320    3.8540 H   0  0  0  0  0  0  0  0  0  0  0  0
  1  2  2  0  0  0  0
  1  6  1  0  0  0  0
  1  7  1  0  0  0  0
  2  3  1  0  0  0  0
  2  9  1  0  0  0  0
  3  4  2  0  0  0  0
  3 13  1  0  0  0  0
  4  5  1  0  0  0  0
  4 14  1  0  0  0  0
  5  6  2  0  0  0  0
  5 15  1  0  0  0  0
  6 10  1  0  0  0  0
  7  8  1  0  0  0  0
  7 16  1  0  0  0  0
  7 17  1  0  0  0  0
  8 11  2  0  0  0  0
  8 12  1  0  0  0  0
 12 18  1  0  0  0  0
M  END
> <OPENEYE_ISO_SMILES>
c1cc(c(c(c1)Cl)CC(=O)O)Cl

> <OPENEYE_INCHI>
InChI=1S/C8H6Cl2O2/c9-6-2-1-3-7(10)5(6)4-8(11)12/h1-3H,4H2,(H,11,12)

> <OPENEYE_INCHIKEY>
SFAILOOQFZNOAU-UHFFFAOYSA-N

> <FORMULA>
C8H6Cl2O2

$$$$
