@<TRIPOS>MOLECULE
/home/pku/3cl/gett_pdb/5RM8/5RM8_mol2/ligand/5RM8_GQJ.pdb
 17 18 0 0 0
SMALL
GASTEIGER

@<TRIPOS>ATOM
      1  C10       -8.3570    1.3240  -97.4030 C.2   701  GQJ701      0.2842
      2  C13       -7.0550   -0.6030 -100.2290 C.ar  701  GQJ701      0.0440
      3  C01       -9.1870    2.9110  -92.7120 C.3   701  GQJ701      0.2557
      4  C03       -9.8810    2.6160  -94.9440 C.2   701  GQJ701      0.3354
      5  C04       -9.6880    3.1080  -96.3670 C.3   701  GQJ701      0.1776
      6  C05      -10.9370    3.8160  -96.8990 C.3   701  GQJ701      0.0660
      7  C06      -11.7560    2.6560  -97.4360 C.3   701  GQJ701      0.1739
      8  C08      -10.7140    1.8150  -98.1570 C.3   701  GQJ701      0.1271
      9  C11       -8.0370    0.5400  -98.5910 C.ar  701  GQJ701      0.1987
     10  C12       -6.8340    0.1300  -99.0370 C.ar  701  GQJ701      0.0455
     11  C14       -8.4100   -0.5980 -100.4350 C.ar  701  GQJ701      0.1798
     12  N09       -9.5200    2.0040  -97.3200 N.am  701  GQJ701     -0.2627
     13  O02       -9.2730    3.4080  -94.0670 O.3   701  GQJ701     -0.4433
     14  O07      -12.7510    3.1160  -98.3400 O.3   701  GQJ701     -0.2212
     15  O15       -9.0190    0.0920  -99.4300 O.2   701  GQJ701     -0.4458
     16  O16       -7.5020    1.4480  -96.5310 O.2   701  GQJ701     -0.2665
     17  O17      -10.4680    1.6160  -94.6580 O.2   701  GQJ701     -0.2483
@<TRIPOS>BOND
     1    11     2   ar
     2    11    15   ar
     3     2    10   ar
     4    15     9   ar
     5    10     9   ar
     6     9     1    1
     7    14     7    1
     8     8     7    1
     9     8    12    1
    10     7     6    1
    11     1    12   am
    12     1    16    2
    13    12     5    1
    14     6     5    1
    15     5     4    1
    16     4    17    2
    17     4    13    1
    18    13     3    1
