DOD
  -OEChem-02242320023D

  3  2  0     0  0  0  0  0  0999 V2000
   -0.0000   -0.0590    0.0000 O   0  0  0  0  0  0  0  0  0  0  0  0
   -0.7760    0.5120    0.0000 H   1  0  0  0  0  0  0  0  0  0  0  0
    0.7760    0.5120    0.0000 H   1  0  0  0  0  0  0  0  0  0  0  0
  1  2  1  0  0  0  0
  1  3  1  0  0  0  0
M  ISO  2   2   2   3   2
M  END
> <OPENEYE_ISO_SMILES>
[2H]O[2H]

> <OPENEYE_INCHI>
InChI=1S/H2O/h1H2/i/hD2

> <OPENEYE_INCHIKEY>
XLYOFNOQVPJJNP-ZSJDYOACSA-N

> <FORMULA>
H2O

$$$$
