YD1
  -OEChem-02242320043D

 38 40  0     0  0  0  0  0  0999 V2000
   -3.8880    0.5030   -0.2050 C   0  0  0  0  0  0  0  0  0  0  0  0
   -2.8150    1.5230   -0.1130 C   0  0  0  0  0  0  0  0  0  0  0  0
   -0.6510    2.2790    0.7600 C   0  0  0  0  0  0  0  0  0  0  0  0
    0.7020    1.7150    0.3150 C   0  0  0  0  0  0  0  0  0  0  0  0
   -0.0470   -0.5660    0.6590 C   0  0  0  0  0  0  0  0  0  0  0  0
   -1.4400   -0.0930    1.1180 C   0  0  0  0  0  0  0  0  0  0  0  0
    3.9650   -1.6600    1.0780 C   0  0  0  0  0  0  0  0  0  0  0  0
    4.3800    0.2570   -0.3040 C   0  0  0  0  0  0  0  0  0  0  0  0
    2.2480   -0.0160    0.7610 C   0  0  0  0  0  0  0  0  0  0  0  0
    2.6860   -1.2040    1.3310 C   0  0  0  0  0  0  0  0  0  0  0  0
    4.8120   -0.9320    0.2620 C   0  0  0  0  0  0  0  0  0  0  0  0
    3.1020    0.7170   -0.0540 C   0  0  0  0  0  0  0  0  0  0  0  0
   -4.9290   -1.2580   -1.4030 C   0  0  0  0  0  0  0  0  0  0  0  0
   -5.8570   -0.6330    0.6500 C   0  0  0  0  0  0  0  0  0  0  0  0
   -4.8090    0.3860    0.7870 C   0  0  0  0  0  0  0  0  0  0  0  0
   -3.9640   -0.3290   -1.3010 N   0  0  0  0  0  0  0  0  0  0  0  0
   -5.8610   -1.4180   -0.4470 N   0  0  0  0  0  0  0  0  0  0  0  0
   -1.6810    1.2470    0.5610 N   0  0  0  0  0  0  0  0  0  0  0  0
    0.9540    0.4480    1.0150 N   0  0  0  0  0  0  0  0  0  0  0  0
   -4.9610   -1.9720   -2.3870 O   0  0  0  0  0  0  0  0  0  0  0  0
   -6.7020   -0.7720    1.5140 O   0  0  0  0  0  0  0  0  0  0  0  0
   -2.9580    2.6060   -0.6440 O   0  0  0  0  0  0  0  0  0  0  0  0
    5.4490    1.1710   -1.3210 Cl  0  0  0  0  0  0  0  0  0  0  0  0
    6.4190   -1.5080   -0.0530 Cl  0  0  0  0  0  0  0  0  0  0  0  0
   -0.6050    2.5520    1.8150 H   0  0  0  0  0  0  0  0  0  0  0  0
   -0.8950    3.1590    0.1650 H   0  0  0  0  0  0  0  0  0  0  0  0
    0.6870    1.5390   -0.7600 H   0  0  0  0  0  0  0  0  0  0  0  0
    1.4910    2.4270    0.5570 H   0  0  0  0  0  0  0  0  0  0  0  0
    0.1980   -1.5080    1.1500 H   0  0  0  0  0  0  0  0  0  0  0  0
   -0.0520   -0.7100   -0.4210 H   0  0  0  0  0  0  0  0  0  0  0  0
   -2.2000   -0.7850    0.7560 H   0  0  0  0  0  0  0  0  0  0  0  0
   -1.4710   -0.0500    2.2070 H   0  0  0  0  0  0  0  0  0  0  0  0
    4.3060   -2.5840    1.5220 H   0  0  0  0  0  0  0  0  0  0  0  0
    2.0270   -1.7710    1.9720 H   0  0  0  0  0  0  0  0  0  0  0  0
    2.7650    1.6440   -0.4950 H   0  0  0  0  0  0  0  0  0  0  0  0
   -4.7710    1.0260    1.6560 H   0  0  0  0  0  0  0  0  0  0  0  0
   -3.3090   -0.2420   -2.0110 H   0  0  0  0  0  0  0  0  0  0  0  0
   -6.5470   -2.0960   -0.5520 H   0  0  0  0  0  0  0  0  0  0  0  0
 14 21  2  0  0  0  0
 14 15  1  0  0  0  0
 14 17  1  0  0  0  0
  1 15  2  0  0  0  0
 13 17  1  0  0  0  0
  8 23  1  0  0  0  0
  1 16  1  0  0  0  0
  1  2  1  0  0  0  0
 13 16  1  0  0  0  0
 13 20  2  0  0  0  0
  2 22  2  0  0  0  0
  2 18  1  0  0  0  0
  8 12  2  0  0  0  0
  8 11  1  0  0  0  0
  9 12  1  0  0  0  0
  3  4  1  0  0  0  0
  4 19  1  0  0  0  0
  3 18  1  0  0  0  0
  6 18  1  0  0  0  0
 11 24  1  0  0  0  0
  7 11  2  0  0  0  0
  5 19  1  0  0  0  0
  5  6  1  0  0  0  0
  9 19  1  0  0  0  0
  9 10  2  0  0  0  0
  7 10  1  0  0  0  0
  3 25  1  0  0  0  0
  3 26  1  0  0  0  0
  4 27  1  0  0  0  0
  4 28  1  0  0  0  0
  5 29  1  0  0  0  0
  5 30  1  0  0  0  0
  6 31  1  0  0  0  0
  6 32  1  0  0  0  0
  7 33  1  0  0  0  0
 10 34  1  0  0  0  0
 12 35  1  0  0  0  0
 15 36  1  0  0  0  0
 16 37  1  0  0  0  0
 17 38  1  0  0  0  0
M  END
> <OPENEYE_ISO_SMILES>
c1cc(c(cc1N2CCN(CC2)C(=O)c3cc(=O)[nH]c(=O)[nH]3)Cl)Cl

> <OPENEYE_INCHI>
InChI=1S/C15H14Cl2N4O3/c16-10-2-1-9(7-11(10)17)20-3-5-21(6-4-20)14(23)12-8-13(22)19-15(24)18-12/h1-2,7-8H,3-6H2,(H2,18,19,22,24)

> <OPENEYE_INCHIKEY>
XREZIAMDGRLMGZ-UHFFFAOYSA-N

> <FORMULA>
C15H14Cl2N4O3

$$$$
