S1F
  -OEChem-02242320043D

 44 46  0     1  0  0  0  0  0999 V2000
    3.4380    1.0650    0.2340 C   0  0  0  0  0  0  0  0  0  0  0  0
    4.3300   -0.7270   -1.0350 C   0  0  0  0  0  0  0  0  0  0  0  0
    4.2540    0.7720   -0.8430 C   0  0  0  0  0  0  0  0  0  0  0  0
    3.0560   -2.5980    0.0530 C   0  0  0  0  0  0  0  0  0  0  0  0
    3.8330   -1.3300    0.2960 C   0  0  2  0  0  0  0  0  0  0  0  0
    2.9110   -0.2180    0.8400 C   0  0  2  0  0  0  0  0  0  0  0  0
    3.8210    3.4070   -0.1120 C   0  0  0  0  0  0  0  0  0  0  0  0
    3.2260    2.3840    0.6000 C   0  0  0  0  0  0  0  0  0  0  0  0
   -7.9260    1.0760   -0.6820 C   0  0  0  0  0  0  0  0  0  0  0  0
   -5.7370    0.1700   -0.3930 C   0  0  0  0  0  0  0  0  0  0  0  0
   -3.4980   -0.5760   -0.1270 C   0  0  0  0  0  0  0  0  0  0  0  0
   -3.2390    0.2120    0.9890 C   0  0  0  0  0  0  0  0  0  0  0  0
   -1.9410    0.4330    1.3920 C   0  0  0  0  0  0  0  0  0  0  0  0
   -0.8830   -0.1360    0.6770 C   0  0  0  0  0  0  0  0  0  0  0  0
    0.5100    0.0980    1.1050 C   0  0  0  0  0  0  0  0  0  0  0  0
    4.6330    3.1140   -1.1920 C   0  0  0  0  0  0  0  0  0  0  0  0
    4.8500    1.8000   -1.5550 C   0  0  0  0  0  0  0  0  0  0  0  0
   -1.1470   -0.9270   -0.4450 C   0  0  0  0  0  0  0  0  0  0  0  0
   -2.4470   -1.1440   -0.8410 C   0  0  0  0  0  0  0  0  0  0  0  0
   -4.8140   -0.8030   -0.5290 N   0  0  0  0  0  0  0  0  0  0  0  0
    1.5290   -0.4510    0.4140 N   0  0  0  0  0  0  0  0  0  0  0  0
   -6.9850   -0.0150   -0.8640 O   0  0  0  0  0  0  0  0  0  0  0  0
    3.6550   -3.6510   -0.5260 O   0  0  0  0  0  0  0  0  0  0  0  0
    1.8950   -2.6680    0.3790 O   0  0  0  0  0  0  0  0  0  0  0  0
    0.7380    0.7870    2.0810 O   0  0  0  0  0  0  0  0  0  0  0  0
   -5.4430    1.2140    0.1560 O   0  0  0  0  0  0  0  0  0  0  0  0
    3.6830   -1.0370   -1.8550 H   0  0  0  0  0  0  0  0  0  0  0  0
    5.3580   -1.0330   -1.2280 H   0  0  0  0  0  0  0  0  0  0  0  0
    4.6670   -1.5130    0.9740 H   0  0  0  0  0  0  0  0  0  0  0  0
    2.9710   -0.1750    1.9270 H   0  0  0  0  0  0  0  0  0  0  0  0
    3.6530    4.4340    0.1750 H   0  0  0  0  0  0  0  0  0  0  0  0
    2.5930    2.6130    1.4440 H   0  0  0  0  0  0  0  0  0  0  0  0
   -8.0420    1.2820    0.3820 H   0  0  0  0  0  0  0  0  0  0  0  0
   -7.5520    1.9670   -1.1860 H   0  0  0  0  0  0  0  0  0  0  0  0
   -8.8910    0.7970   -1.1060 H   0  0  0  0  0  0  0  0  0  0  0  0
   -4.0560    0.6510    1.5410 H   0  0  0  0  0  0  0  0  0  0  0  0
   -1.7400    1.0450    2.2580 H   0  0  0  0  0  0  0  0  0  0  0  0
    5.1000    3.9130   -1.7500 H   0  0  0  0  0  0  0  0  0  0  0  0
    5.4850    1.5720   -2.3990 H   0  0  0  0  0  0  0  0  0  0  0  0
   -0.3320   -1.3670   -1.0000 H   0  0  0  0  0  0  0  0  0  0  0  0
   -2.6520   -1.7590   -1.7050 H   0  0  0  0  0  0  0  0  0  0  0  0
   -5.0660   -1.6600   -0.9060 H   0  0  0  0  0  0  0  0  0  0  0  0
    1.3470   -1.0000   -0.3640 H   0  0  0  0  0  0  0  0  0  0  0  0
    3.1160   -4.4430   -0.6620 H   0  0  0  0  0  0  0  0  0  0  0  0
 16 17  2  0  0  0  0
  7 16  1  0  0  0  0
  3 17  1  0  0  0  0
  7  8  2  0  0  0  0
  1  3  2  0  0  0  0
  2  3  1  0  0  0  0
  1  8  1  0  0  0  0
  1  6  1  0  0  0  0
  2  5  1  0  0  0  0
 15 25  2  0  0  0  0
  5  6  1  0  0  0  0
  6 21  1  0  0  0  0
  4  5  1  0  0  0  0
 15 21  1  0  0  0  0
 14 15  1  0  0  0  0
  4 24  2  0  0  0  0
  4 23  1  0  0  0  0
 13 14  2  0  0  0  0
 12 13  1  0  0  0  0
 14 18  1  0  0  0  0
 11 12  2  0  0  0  0
 18 19  2  0  0  0  0
 11 19  1  0  0  0  0
 11 20  1  0  0  0  0
 10 26  2  0  0  0  0
 10 20  1  0  0  0  0
 10 22  1  0  0  0  0
  9 22  1  0  0  0  0
  2 27  1  0  0  0  0
  2 28  1  0  0  0  0
  5 29  1  0  0  0  0
  6 30  1  0  0  0  0
  7 31  1  0  0  0  0
  8 32  1  0  0  0  0
  9 33  1  0  0  0  0
  9 34  1  0  0  0  0
  9 35  1  0  0  0  0
 12 36  1  0  0  0  0
 13 37  1  0  0  0  0
 16 38  1  0  0  0  0
 17 39  1  0  0  0  0
 18 40  1  0  0  0  0
 19 41  1  0  0  0  0
 20 42  1  0  0  0  0
 21 43  1  0  0  0  0
 23 44  1  0  0  0  0
M  END
> <OPENEYE_ISO_SMILES>
COC(=O)Nc1ccc(cc1)C(=O)N[C@@H]2c3ccccc3C[C@@H]2C(=O)O

> <OPENEYE_INCHI>
InChI=1S/C19H18N2O5/c1-26-19(25)20-13-8-6-11(7-9-13)17(22)21-16-14-5-3-2-4-12(14)10-15(16)18(23)24/h2-9,15-16H,10H2,1H3,(H,20,25)(H,21,22)(H,23,24)/t15-,16+/m0/s1

> <OPENEYE_INCHIKEY>
QZUXMBWCGJKNAA-JKSUJKDBSA-N

> <FORMULA>
C19H18N2O5

$$$$
