FHR
  -OEChem-02242320023D

 65 68  0     1  0  0  0  0  0999 V2000
   -2.3040   -0.5650    0.5620 C   0  0  0  0  0  0  0  0  0  0  0  0
   -8.2450    0.4910    0.5670 C   0  0  0  0  0  0  0  0  0  0  0  0
   -7.9850    1.0230   -0.6900 C   0  0  0  0  0  0  0  0  0  0  0  0
   -6.7060    1.0290   -1.1980 C   0  0  0  0  0  0  0  0  0  0  0  0
   -5.6600    0.4970   -0.4480 C   0  0  0  0  0  0  0  0  0  0  0  0
   -5.9260   -0.0410    0.8260 C   0  0  0  0  0  0  0  0  0  0  0  0
   -7.2360   -0.0310    1.3230 C   0  0  0  0  0  0  0  0  0  0  0  0
   -4.6920   -0.5010    1.3460 C   0  0  0  0  0  0  0  0  0  0  0  0
   -3.7320   -0.2460    0.4190 C   0  0  0  0  0  0  0  0  0  0  0  0
   -4.3120    0.3570   -0.6800 N   0  0  0  0  0  0  0  0  0  0  0  0
   -1.8990   -1.1030    1.5750 O   0  0  0  0  0  0  0  0  0  0  0  0
   -1.4440   -0.2670   -0.4330 N   0  0  0  0  0  0  0  0  0  0  0  0
   -0.0080   -0.4930   -0.2520 C   0  0  2  0  0  0  0  0  0  0  0  0
    0.7650    0.4940   -1.0880 C   0  0  0  0  0  0  0  0  0  0  0  0
    0.2000    1.1330   -1.9500 O   0  0  0  0  0  0  0  0  0  0  0  0
    0.3430   -1.9170   -0.6900 C   0  0  0  0  0  0  0  0  0  0  0  0
    1.8130   -2.2000   -0.3750 C   0  0  0  0  0  0  0  0  0  0  0  0
    2.2090   -3.5550   -0.9640 C   0  0  0  0  0  0  0  0  0  0  0  0
    3.6800   -3.8380   -0.6490 C   0  0  0  0  0  0  0  0  0  0  0  0
    3.8810   -3.8620    0.8680 C   0  0  0  0  0  0  0  0  0  0  0  0
    3.4840   -2.5060    1.4560 C   0  0  0  0  0  0  0  0  0  0  0  0
    2.0140   -2.2240    1.1410 C   0  0  0  0  0  0  0  0  0  0  0  0
    1.8840    1.3140    1.3390 O   0  0  0  0  0  0  0  0  0  0  0  0
    3.0030    1.7710    1.4330 C   0  0  0  0  0  0  0  0  0  0  0  0
    3.8920    1.4400    2.3850 N   0  0  0  0  0  0  0  0  0  0  0  0
    5.1560    2.1650    2.2100 C   0  0  0  0  0  0  0  0  0  0  0  0
    4.8280    3.3420    1.2640 C   0  0  0  0  0  0  0  0  0  0  0  0
    3.6040    2.7930    0.4930 C   0  0  1  0  0  0  0  0  0  0  0  0
    4.0470    2.1260   -0.8110 C   0  0  0  0  0  0  0  0  0  0  0  0
    2.8140    1.7030   -1.6130 C   0  0  2  0  0  0  0  0  0  0  0  0
    2.0850    0.6680   -0.8770 N   0  0  0  0  0  0  0  0  0  0  0  0
    3.2470    1.1590   -2.9500 C   0  0  0  0  0  0  0  0  0  0  0  0
    2.9740    0.0230   -3.2560 O   0  0  0  0  0  0  0  0  0  0  0  0
   -9.2540    0.4950    0.9510 H   0  0  0  0  0  0  0  0  0  0  0  0
   -8.7950    1.4350   -1.2740 H   0  0  0  0  0  0  0  0  0  0  0  0
   -6.5140    1.4440   -2.1770 H   0  0  0  0  0  0  0  0  0  0  0  0
   -7.4480   -0.4420    2.2990 H   0  0  0  0  0  0  0  0  0  0  0  0
   -4.5410   -0.9700    2.3070 H   0  0  0  0  0  0  0  0  0  0  0  0
   -3.8450    0.6410   -1.4810 H   0  0  0  0  0  0  0  0  0  0  0  0
   -1.7760    0.0970   -1.2680 H   0  0  0  0  0  0  0  0  0  0  0  0
    0.2510   -0.3620    0.7980 H   0  0  0  0  0  0  0  0  0  0  0  0
   -0.2870   -2.6280   -0.1550 H   0  0  0  0  0  0  0  0  0  0  0  0
    0.1750   -2.0190   -1.7630 H   0  0  0  0  0  0  0  0  0  0  0  0
    2.4350   -1.4180   -0.8120 H   0  0  0  0  0  0  0  0  0  0  0  0
    1.5870   -4.3370   -0.5270 H   0  0  0  0  0  0  0  0  0  0  0  0
    2.0660   -3.5380   -2.0440 H   0  0  0  0  0  0  0  0  0  0  0  0
    3.9620   -4.8030   -1.0680 H   0  0  0  0  0  0  0  0  0  0  0  0
    4.3010   -3.0560   -1.0850 H   0  0  0  0  0  0  0  0  0  0  0  0
    3.2590   -4.6430    1.3040 H   0  0  0  0  0  0  0  0  0  0  0  0
    4.9280   -4.0630    1.0920 H   0  0  0  0  0  0  0  0  0  0  0  0
    3.6280   -2.5240    2.5370 H   0  0  0  0  0  0  0  0  0  0  0  0
    4.1060   -1.7250    1.0200 H   0  0  0  0  0  0  0  0  0  0  0  0
    1.7320   -1.2580    1.5610 H   0  0  0  0  0  0  0  0  0  0  0  0
    1.3920   -3.0050    1.5780 H   0  0  0  0  0  0  0  0  0  0  0  0
    3.7210    0.8040    3.0970 H   0  0  0  0  0  0  0  0  0  0  0  0
    5.5120    2.5400    3.1690 H   0  0  0  0  0  0  0  0  0  0  0  0
    5.9050    1.5150    1.7580 H   0  0  0  0  0  0  0  0  0  0  0  0
    4.5650    4.2390    1.8250 H   0  0  0  0  0  0  0  0  0  0  0  0
    5.6600    3.5380    0.5870 H   0  0  0  0  0  0  0  0  0  0  0  0
    2.8900    3.5920    0.2900 H   0  0  0  0  0  0  0  0  0  0  0  0
    4.6370    2.8310   -1.3970 H   0  0  0  0  0  0  0  0  0  0  0  0
    4.6510    1.2480   -0.5830 H   0  0  0  0  0  0  0  0  0  0  0  0
    2.1660    2.5660   -1.7640 H   0  0  0  0  0  0  0  0  0  0  0  0
    2.5520    0.1070   -0.2370 H   0  0  0  0  0  0  0  0  0  0  0  0
    3.8010    1.7840   -3.6340 H   0  0  0  0  0  0  0  0  0  0  0  0
  5  6  2  0  0  0  0
  4  5  1  0  0  0  0
  5 10  1  0  0  0  0
 12 13  1  0  0  0  0
  1 12  1  0  0  0  0
 13 14  1  0  0  0  0
 13 16  1  0  0  0  0
 17 18  1  0  0  0  0
 16 17  1  0  0  0  0
 17 22  1  0  0  0  0
 21 22  1  0  0  0  0
 20 21  1  0  0  0  0
 18 19  1  0  0  0  0
 14 31  1  0  0  0  0
 14 15  2  0  0  0  0
 29 30  1  0  0  0  0
 28 29  1  0  0  0  0
 27 28  1  0  0  0  0
  1  9  1  0  0  0  0
  1 11  2  0  0  0  0
  8  9  2  0  0  0  0
  9 10  1  0  0  0  0
  6  8  1  0  0  0  0
  6  7  1  0  0  0  0
  2  7  2  0  0  0  0
  2  3  1  0  0  0  0
  3  4  2  0  0  0  0
 19 20  1  0  0  0  0
 30 32  1  0  0  0  0
 30 31  1  0  0  0  0
 24 28  1  0  0  0  0
 25 26  1  0  0  0  0
 24 25  1  0  0  0  0
 23 24  2  0  0  0  0
 32 33  2  0  0  0  0
 12 40  1  0  0  0  0
 13 41  1  0  0  0  0
 17 44  1  0  0  0  0
 21 52  1  0  0  0  0
 21 51  1  0  0  0  0
 18 46  1  0  0  0  0
 18 45  1  0  0  0  0
 29 62  1  0  0  0  0
 29 61  1  0  0  0  0
 27 58  1  0  0  0  0
 27 59  1  0  0  0  0
  8 38  1  0  0  0  0
  7 37  1  0  0  0  0
  2 34  1  0  0  0  0
  3 35  1  0  0  0  0
  4 36  1  0  0  0  0
 16 42  1  0  0  0  0
 16 43  1  0  0  0  0
 22 53  1  0  0  0  0
 22 54  1  0  0  0  0
 20 50  1  0  0  0  0
 20 49  1  0  0  0  0
 19 48  1  0  0  0  0
 19 47  1  0  0  0  0
 30 63  1  0  0  0  0
 28 60  1  0  0  0  0
 26 56  1  0  0  0  0
 26 57  1  0  0  0  0
 32 65  1  0  0  0  0
 10 39  1  0  0  0  0
 31 64  1  0  0  0  0
 25 55  1  0  0  0  0
 26 27  1  0  0  0  0
M  END
> <OPENEYE_ISO_SMILES>
c1ccc2c(c1)cc([nH]2)C(=O)N[C@@H](CC3CCCCC3)C(=O)N[C@@H](C[C@@H]4CCNC4=O)C=O

> <OPENEYE_INCHI>
InChI=1S/C25H32N4O4/c30-15-19(13-18-10-11-26-23(18)31)27-24(32)21(12-16-6-2-1-3-7-16)29-25(33)22-14-17-8-4-5-9-20(17)28-22/h4-5,8-9,14-16,18-19,21,28H,1-3,6-7,10-13H2,(H,26,31)(H,27,32)(H,29,33)/t18-,19-,21-/m0/s1

> <OPENEYE_INCHIKEY>
HPKJGHVHQWJOOT-ZJOUEHCJSA-N

> <FORMULA>
C25H32N4O4

$$$$
