DE5
  -OEChem-02242320023D

 17 17  0     0  0  0  0  0  0999 V2000
   -1.5540   -0.2060    0.0120 C   0  0  0  0  0  0  0  0  0  0  0  0
   -2.9670   -0.7310    0.0140 C   0  0  0  0  0  0  0  0  0  0  0  0
    1.8530   -1.3190   -0.0120 N   0  0  0  0  0  0  0  0  0  0  0  0
   -0.5160   -1.0660    0.0010 N   0  0  0  0  0  0  0  0  0  0  0  0
    0.7870   -0.5820   -0.0020 C   0  0  0  0  0  0  0  0  0  0  0  0
   -3.9080    0.3960    0.0200 N   0  0  0  0  0  0  0  0  0  0  0  0
    3.0140   -0.6910   -0.0120 C   0  0  0  0  0  0  0  0  0  0  0  0
    2.9250    0.6410   -0.0020 C   0  0  0  0  0  0  0  0  0  0  0  0
    1.2170    1.0730    0.0090 S   0  0  0  0  0  0  0  0  0  0  0  0
   -1.3510    0.9890    0.0140 O   0  0  0  0  0  0  0  0  0  0  0  0
   -3.1310   -1.3370   -0.8770 H   0  0  0  0  0  0  0  0  0  0  0  0
   -3.1260   -1.3420    0.9030 H   0  0  0  0  0  0  0  0  0  0  0  0
   -0.6780   -2.0220   -0.0050 H   0  0  0  0  0  0  0  0  0  0  0  0
   -3.7380    1.0130   -0.7600 H   0  0  0  0  0  0  0  0  0  0  0  0
   -4.8630    0.0700    0.0220 H   0  0  0  0  0  0  0  0  0  0  0  0
    3.9600   -1.2120   -0.0200 H   0  0  0  0  0  0  0  0  0  0  0  0
    3.7540    1.3320   -0.0010 H   0  0  0  0  0  0  0  0  0  0  0  0
  3  7  1  0  0  0  0
  7  8  2  0  0  0  0
  3  5  2  0  0  0  0
  8  9  1  0  0  0  0
  4  5  1  0  0  0  0
  5  9  1  0  0  0  0
  1  4  1  0  0  0  0
  1  2  1  0  0  0  0
  1 10  2  0  0  0  0
  2  6  1  0  0  0  0
  2 11  1  0  0  0  0
  2 12  1  0  0  0  0
  4 13  1  0  0  0  0
  6 14  1  0  0  0  0
  6 15  1  0  0  0  0
  7 16  1  0  0  0  0
  8 17  1  0  0  0  0
M  END
> <OPENEYE_ISO_SMILES>
c1csc(n1)NC(=O)CN

> <OPENEYE_INCHI>
InChI=1S/C5H7N3OS/c6-3-4(9)8-5-7-1-2-10-5/h1-2H,3,6H2,(H,7,8,9)

> <OPENEYE_INCHIKEY>
JVRRHVNPKGSGSX-UHFFFAOYSA-N

> <FORMULA>
C5H7N3OS

$$$$
