TU8
  -OEChem-02242320043D

 34 37  0     1  0  0  0  0  0999 V2000
    0.8330    1.6110   -0.9260 N   0  0  0  0  0  0  0  0  0  0  0  0
   -3.5370   -2.0540    0.4220 N   0  0  0  0  0  0  0  0  0  0  0  0
    3.2810   -0.9980   -1.6600 C   0  0  0  0  0  0  0  0  0  0  0  0
    3.6060   -0.4790   -0.2740 C   0  0  0  0  0  0  0  0  0  0  0  0
    4.7420   -0.6410    0.5000 C   0  0  0  0  0  0  0  0  0  0  0  0
    4.8170   -0.0720    1.7550 C   0  0  0  0  0  0  0  0  0  0  0  0
    3.7530    0.6640    2.2430 C   0  0  0  0  0  0  0  0  0  0  0  0
    2.5400    0.2590    0.2120 C   0  0  0  0  0  0  0  0  0  0  0  0
   -2.3280   -1.6280    0.1160 C   0  0  0  0  0  0  0  0  0  0  0  0
   -4.3720    0.1450    0.4400 C   0  0  0  0  0  0  0  0  0  0  0  0
   -0.4770    1.4480   -0.6490 C   0  0  0  0  0  0  0  0  0  0  0  0
    0.3030   -0.6250   -0.4360 C   0  0  0  0  0  0  0  0  0  0  0  0
   -2.0730   -0.2730   -0.0470 C   0  0  0  0  0  0  0  0  0  0  0  0
   -4.5470   -1.2220    0.5860 C   0  0  0  0  0  0  0  0  0  0  0  0
   -3.1150    0.6350    0.1180 C   0  0  0  0  0  0  0  0  0  0  0  0
    1.4420    0.2850   -0.8160 C   0  0  1  0  0  0  0  0  0  0  0  0
    2.0830   -0.1480   -2.1400 C   0  0  0  0  0  0  0  0  0  0  0  0
    2.6180    0.8280    1.4730 C   0  0  0  0  0  0  0  0  0  0  0  0
   -5.4120    0.9890    0.6100 F   0  0  0  0  0  0  0  0  0  0  0  0
   -0.7850    0.1740   -0.3720 N   0  0  0  0  0  0  0  0  0  0  0  0
   -1.2860    2.3540   -0.6490 O   0  0  0  0  0  0  0  0  0  0  0  0
    0.3510   -1.8200   -0.2390 O   0  0  0  0  0  0  0  0  0  0  0  0
    1.2800    2.4410   -1.1570 H   0  0  0  0  0  0  0  0  0  0  0  0
    4.1330   -0.8590   -2.3250 H   0  0  0  0  0  0  0  0  0  0  0  0
    3.0040   -2.0510   -1.6150 H   0  0  0  0  0  0  0  0  0  0  0  0
    5.5740   -1.2160    0.1200 H   0  0  0  0  0  0  0  0  0  0  0  0
    5.7050   -0.2010    2.3560 H   0  0  0  0  0  0  0  0  0  0  0  0
    3.8080    1.1090    3.2250 H   0  0  0  0  0  0  0  0  0  0  0  0
   -1.5260   -2.3410   -0.0100 H   0  0  0  0  0  0  0  0  0  0  0  0
   -5.5230   -1.6100    0.8360 H   0  0  0  0  0  0  0  0  0  0  0  0
   -2.9480    1.6960   -0.0020 H   0  0  0  0  0  0  0  0  0  0  0  0
    2.4230    0.7180   -2.7080 H   0  0  0  0  0  0  0  0  0  0  0  0
    1.3900   -0.7510   -2.7270 H   0  0  0  0  0  0  0  0  0  0  0  0
    1.7880    1.4030    1.8550 H   0  0  0  0  0  0  0  0  0  0  0  0
  2 14  2  0  0  0  0
  2  9  1  0  0  0  0
 10 14  1  0  0  0  0
  9 13  2  0  0  0  0
 10 19  1  0  0  0  0
 10 15  2  0  0  0  0
 13 15  1  0  0  0  0
 13 20  1  0  0  0  0
 12 22  2  0  0  0  0
 12 20  1  0  0  0  0
 11 20  1  0  0  0  0
 12 16  1  0  0  0  0
 11 21  2  0  0  0  0
  1 11  1  0  0  0  0
  7 18  2  0  0  0  0
  8 18  1  0  0  0  0
  6  7  1  0  0  0  0
  8 16  1  0  0  0  0
  4  8  2  0  0  0  0
  5  6  2  0  0  0  0
  1 16  1  0  0  0  0
 16 17  1  0  0  0  0
  4  5  1  0  0  0  0
  3  4  1  0  0  0  0
  3 17  1  0  0  0  0
  1 23  1  0  0  0  0
  3 24  1  0  0  0  0
  3 25  1  0  0  0  0
  5 26  1  0  0  0  0
  6 27  1  0  0  0  0
  7 28  1  0  0  0  0
  9 29  1  0  0  0  0
 14 30  1  0  0  0  0
 15 31  1  0  0  0  0
 17 32  1  0  0  0  0
 17 33  1  0  0  0  0
 18 34  1  0  0  0  0
M  END
> <OPENEYE_ISO_SMILES>
c1ccc2c(c1)CC[C@@]23C(=O)N(C(=O)N3)c4cc(cnc4)F

> <OPENEYE_INCHI>
InChI=1S/C16H12FN3O2/c17-11-7-12(9-18-8-11)20-14(21)16(19-15(20)22)6-5-10-3-1-2-4-13(10)16/h1-4,7-9H,5-6H2,(H,19,22)/t16-/m0/s1

> <OPENEYE_INCHIKEY>
HDQQGZLJXIFZDY-INIZCTEOSA-N

> <FORMULA>
C16H12FN3O2

$$$$
