@<TRIPOS>MOLECULE
/home/pku/3cl/gett_pdb/7TIU/7TIU_mol2/ligand/7TIU_V46.pdb
 30 31 0 0 0
SMALL
GASTEIGER

@<TRIPOS>ATOM
      1  C1        10.0260   -4.3930   21.6550 C.ar  401  V46401      0.0222
      2  C12        7.4860    0.0520   23.3710 C.3   401  V46401      0.1761
      3  C13        7.6230    1.1170   24.4610 C.3   401  V46401      0.0312
      4  C14        6.7990    0.6740   25.6660 C.3   401  V46401      0.0022
      5  C15        7.0740    1.6480   26.8110 C.3   401  V46401      0.0001
      6  C16        5.3090    0.6720   25.3270 C.3   401  V46401      0.0001
      7  C17        8.2650    0.5380   22.1530 C.2   401  V46401      0.2614
      8  C2        10.9020   -3.3130   21.6010 C.ar  401  V46401      0.0107
      9  C20        8.2100    1.5080   19.9180 C.3   401  V46401      0.1287
     10  C21        7.8960    2.9960   19.7850 C.3   401  V46401      0.2036
     11  C24        7.6970    0.7340   18.7020 C.3   401  V46401      0.0335
     12  C25        8.2390   -0.7290   18.7910 C.3   401  V46401      0.0818
     13  C26        9.7120   -0.7280   18.6690 C.3   401  V46401      0.0326
     14  C27        9.9920   -2.0640   17.9790 C.3   401  V46401      0.1156
     15  C29        7.7110   -1.5610   17.6520 C.2   401  V46401      0.2410
     16  C3        11.9140   -3.2890   20.6470 C.ar  401  V46401      0.0575
     17  C4        12.0530   -4.3380   19.7450 C.ar  401  V46401      0.0114
     18  C5        11.1780   -5.4150   19.7980 C.ar  401  V46401      0.0007
     19  C6        10.1670   -5.4420   20.7520 C.ar  401  V46401     -0.0006
     20  C7         8.9020   -4.4410   22.6930 C.3   401  V46401      0.2368
     21  C9         8.1230   -2.2810   23.0690 C.2   401  V46401      0.4218
     22 CL         12.9770   -1.9790   20.5820 Cl    401  V46401     -0.0823
     23  N11        8.0110   -1.2120   23.8640 N.am  401  V46401     -0.1611
     24  N19        7.5670    1.0100   21.1200 N.am  401  V46401     -0.2030
     25  N28        8.6990   -2.3280   17.1820 N.am  401  V46401     -0.2054
     26  O10        7.5680   -2.3240   22.0100 O.2   401  V46401     -0.2245
     27  O18        9.4710    0.4950   22.1410 O.2   401  V46401     -0.2715
     28  O22        8.5890    3.5420   18.6940 O.3   401  V46401     -0.2185
     29  O30        6.5860   -1.5410   17.2420 O.2   401  V46401     -0.2734
     30  O8         8.8750   -3.2880   23.4860 O.3   401  V46401     -0.4285
@<TRIPOS>BOND
     1    25    15   am
     2    25    14    1
     3    29    15    2
     4    15    12    1
     5    14    13    1
     6    13    12    1
     7    28    10    1
     8    11    12    1
     9    11     9    1
    10    17    18   ar
    11    17    16   ar
    12    10     9    1
    13    18    19   ar
    14     9    24    1
    15    22    16    1
    16    16     8   ar
    17    19     1   ar
    18    24     7   am
    19     8     1   ar
    20     1    20    1
    21    26    21    2
    22    27     7    2
    23     7     2    1
    24    20    30    1
    25    21    30    1
    26    21    23   am
    27     2    23    1
    28     2     3    1
    29     3     4    1
    30     6     4    1
    31     4     5    1
