@<TRIPOS>MOLECULE
/home/pku/3cl/gett_pdb/7MAT/7MAT_mol2/ligand/7MAT_H37.pdb
 65 66 0 0 0
SMALL
GASTEIGER

@<TRIPOS>ATOM
      1  N         31.6460   -5.0130    2.1680 N.3   401  H37401     -0.3197
      2  CA        32.6550   -6.0420    2.1310 C.3   401  H37401      0.0863
      3  C         32.0340   -7.3590    1.7020 C.2   401  H37401      0.2308
      4  O         31.0570   -7.3660    1.0560 O.2   401  H37401     -0.2741
      5  CB        33.7840   -5.7180    1.1520 C.3   401  H37401     -0.0039
      6  CG        33.3210   -4.9780   -0.1010 C.ar  401  H37401     -0.0454
      7  CD1       32.8340   -5.6690   -1.1920 C.ar  401  H37401     -0.0585
      8  CD2       33.4100   -3.6050   -0.1650 C.ar  401  H37401     -0.0585
      9  CE1       32.4280   -5.0060   -2.3280 C.ar  401  H37401     -0.0615
     10  CE2       33.0030   -2.9430   -1.3000 C.ar  401  H37401     -0.0615
     11  CZ        32.5090   -3.6340   -2.3850 C.ar  401  H37401     -0.0617
     12  N1        32.7090   -8.5730    2.0940 N.am  401  H37401     -0.3024
     13  CA1       32.2420   -9.8940    1.7610 C.3   401  H37401      0.1033
     14  C1        32.1720  -10.5850    3.0910 C.2   401  H37401      0.2342
     15  O1        32.4760   -9.9370    4.0280 O.2   401  H37401     -0.2738
     16  CB1       33.2400  -10.5720    0.8240 C.3   401  H37401     -0.0007
     17  CG1       32.9420  -10.1000   -0.5800 C.ar  401  H37401     -0.0451
     18 CD11       31.8050  -10.5730   -1.1940 C.ar  401  H37401     -0.0585
     19 CD21       33.8080   -9.2450   -1.2380 C.ar  401  H37401     -0.0585
     20 CE11       31.5180  -10.1750   -2.4620 C.ar  401  H37401     -0.0615
     21 CE21       33.5130   -8.8560   -2.5230 C.ar  401  H37401     -0.0615
     22  CZ1       32.3720   -9.3180   -3.1180 C.ar  401  H37401     -0.0617
     23  N2        31.7550  -11.9720    3.1140 N.am  401  H37401     -0.3041
     24  CA2       31.5580  -12.8120    4.2700 C.3   401  H37401      0.0822
     25  C2        30.4090  -12.0200    4.8370 C.2   401  H37401      0.1624
     26  O2        30.5120  -11.1930    5.6490 O.2   401  H37401     -0.2947
     27  CB2       32.7500  -13.0210    5.2070 C.3   401  H37401     -0.0247
     28  CG2       32.3790  -14.1220    6.2080 C.3   401  H37401     -0.0202
     29  CD        33.4490  -14.2980    7.2820 C.3   401  H37401      0.0647
     30  NE        32.8290  -14.2870    8.5940 N.pl3 401  H37401     -0.2761
     31  CZ2       32.4410  -13.0810    9.3230 C.cat 401  H37401      0.3762
     32  NH2       31.8350  -13.2220   10.6310 N.pl3 401  H37401     -0.2893
     33  NH1       32.5900  -11.9070    8.9010 N.pl3 401  H37401     -0.1298
     34  C3        29.0900  -12.2300    4.1740 C.3   401  H37401      0.0736
     35  HN        30.9730   -5.2460    1.6360 H     401  H37401      0.1189
     36  HNA       31.3470   -4.9180    2.9980 H     401  H37401      0.1189
     37  HA        33.0270   -6.1360    3.0210 H     401  H37401      0.0557
     38  HB        34.2060   -6.5470    0.8750 H     401  H37401      0.0333
     39  HBA       34.4470   -5.1840    1.6140 H     401  H37401      0.0333
     40  HD1       32.7700   -6.5870   -1.1570 H     401  H37401      0.0620
     41  HD2       33.7360   -3.1200    0.5560 H     401  H37401      0.0620
     42  HE1       32.1040   -5.4810   -3.0550 H     401  H37401      0.0618
     43  HE2       33.0670   -2.0220   -1.3260 H     401  H37401      0.0618
     44  HZ        32.2370   -3.1800   -3.1500 H     401  H37401      0.0618
     45  HN1       33.4220   -8.5050    2.5670 H     401  H37401      0.1495
     46  HA1       31.3460   -9.8830    1.3970 H     401  H37401      0.0598
     47  HB1       34.1470  -10.3410    1.0720 H     401  H37401      0.0336
     48 HB1A       33.1530  -11.5350    0.8390 H     401  H37401      0.0336
     49 HD11       31.2280  -11.1520   -0.7520 H     401  H37401      0.0620
     50 HD21       34.5800   -8.9320   -0.8260 H     401  H37401      0.0620
     51 HE11       30.7440  -10.4820   -2.8710 H     401  H37401      0.0618
     52 HE21       34.0660   -8.2700   -2.9810 H     401  H37401      0.0618
     53  HZ1       32.1670   -9.0400   -3.9720 H     401  H37401      0.0618
     54  HN2       31.5400  -12.3080    2.3770 H     401  H37401      0.1494
     55  HA2       31.2250  -13.6730    3.9680 H     401  H37401      0.0577
     56  HB2       32.9730  -12.1980    5.6660 H     401  H37401      0.0288
     57 HB2A       33.5110  -13.3120    4.6830 H     401  H37401      0.0288
     58  HG2       31.5380  -13.9090    6.6400 H     401  H37401      0.0296
     59 HG2A       32.2800  -14.9660    5.7400 H     401  H37401      0.0296
     60  HD        34.1300  -13.6130    7.2170 H     401  H37401      0.0655
     61  HDA       33.8690  -15.1610    7.1670 H     401  H37401      0.0655
     62  HNE       32.6880  -15.0510    8.9620 H     401  H37401      0.2579
     63 HNH2       31.5980  -12.5180   11.0630 H     401  H37401      0.2546
     64 HNHA       31.7010  -13.9990   10.9750 H     401  H37401      0.2546
     65 HNH1       32.9450  -11.7030    8.1170 H     401  H37401      0.3062
@<TRIPOS>BOND
     1    53    22    1
     2    44    11    1
     3    22    21   ar
     4    22    20   ar
     5    42     9    1
     6    52    21    1
     7    51    20    1
     8    21    19   ar
     9    20    18   ar
    10    11     9   ar
    11    11    10   ar
    12     9     7   ar
    13    43    10    1
    14    10     8   ar
    15    19    50    1
    16    19    17   ar
    17    18    49    1
    18    18    17   ar
    19     7    40    1
    20     7     6   ar
    21    17    16    1
    22     8     6   ar
    23     8    41    1
    24     6     5    1
    25    16    48    1
    26    16    47    1
    27    16    13    1
    28    38     5    1
    29     4     3    2
    30     5    39    1
    31     5     2    1
    32    46    13    1
    33    35     1    1
    34     3    12   am
    35     3     2    1
    36    13    12    1
    37    13    14    1
    38    12    45    1
    39     2     1    1
    40     2    37    1
    41     1    36    1
    42    54    23    1
    43    14    23   am
    44    14    15    2
    45    23    24    1
    46    55    24    1
    47    34    25    1
    48    24    25    1
    49    24    27    1
    50    57    27    1
    51    25    26    2
    52    27    56    1
    53    27    28    1
    54    59    28    1
    55    28    58    1
    56    28    29    1
    57    61    29    1
    58    60    29    1
    59    29    30    1
    60    65    33    1
    61    30    62    1
    62    30    31    1
    63    33    31    2
    64    31    32    1
    65    32    64    1
    66    32    63    1
