@<TRIPOS>MOLECULE
/home/pku/3cl/gett_pdb/5SPZ/5SPZ_mol2/ligand/5SPZ_QJC.pdb
 30 31 0 0 0
SMALL
GASTEIGER

@<TRIPOS>ATOM
      1  C16      -45.4600  -30.9070    1.5410 C.3   201  QJC201      0.0289
      2  C17      -45.0170  -32.9590    0.4120 C.3   201  QJC201      0.1031
      3  C13      -49.1760  -28.9220    2.9680 C.ar  201  QJC201      0.2654
      4  C12      -47.7780  -28.7590    2.4610 C.ar  201  QJC201      0.0178
      5  C02      -43.8500  -32.3580    2.6320 C.2   201  QJC201      0.0974
      6  C03      -44.4570  -31.8110    1.3010 C.3   201  QJC201      0.0644
      7  C04      -43.3500  -30.9370    0.5850 C.3   201  QJC201     -0.0217
      8  C05      -43.4330  -29.5680    1.3830 C.3   201  QJC201      0.0160
      9  C07      -45.2200  -28.5100    2.8490 C.2   201  QJC201      0.2483
     10  C08      -46.6630  -28.6960    3.4090 C.ar  201  QJC201      0.0617
     11  C09      -46.9180  -28.8090    4.8760 C.ar  201  QJC201      0.0601
     12  F18      -45.3110  -32.5110   -0.8440 F     201  QJC201     -0.2480
     13  N06      -44.6590  -29.5610    1.9590 N.am  201  QJC201     -0.2965
     14  N10      -48.3020  -28.9790    5.3770 N.ar  201  QJC201     -0.1786
     15  N11      -49.4260  -29.0400    4.4240 N.ar  201  QJC201     -0.2432
     16  O01      -43.8920  -33.6060    2.8950 O.co2 201  QJC201     -0.8471
     17  O14      -50.0940  -28.9810    2.2020 O.2   201  QJC201     -0.2664
     18  O15      -44.5780  -27.5510    3.1210 O.2   201  QJC201     -0.2699
     19  O19      -43.2980  -31.5570    3.4540 O.co2 201  QJC201     -0.3083
     20 H162      -46.0650  -30.7420    0.6610 H     201  QJC201      0.0475
     21 H161      -46.0720  -31.2540    2.3640 H     201  QJC201      0.0475
     22 H172      -45.9250  -33.3370    0.8730 H     201  QJC201      0.0625
     23 H171      -44.2690  -33.7440    0.3500 H     201  QJC201      0.0625
     24 H121      -47.5820  -28.6850    1.3960 H     201  QJC201      0.0680
     25 H041      -42.3730  -31.3890    0.6980 H     201  QJC201      0.0291
     26 H042      -43.5990  -30.7910   -0.4550 H     201  QJC201      0.0291
     27 H052      -43.3210  -28.7190    0.7010 H     201  QJC201      0.0465
     28 H051      -42.6630  -29.5500    2.1430 H     201  QJC201      0.0465
     29 H091      -46.0990  -28.7730    5.5730 H     201  QJC201      0.0855
     30 H111      -50.3680  -29.1630    4.7530 H     201  QJC201      0.1921
@<TRIPOS>UNITY_ATOM_ATTR
16 1
charge -1
@<TRIPOS>BOND
     1    12     2    1
     2    26     7    1
     3    23     2    1
     4     2    22    1
     5     2     6    1
     6     7    25    1
     7     7     6    1
     8     7     8    1
     9    20     1    1
    10    27     8    1
    11     6     1    1
    12     6     5    1
    13     8    13    1
    14     8    28    1
    15    24     4    1
    16     1    13    1
    17     1    21    1
    18    13     9   am
    19    17     3    2
    20     4     3   ar
    21     4    10   ar
    22     5    16   ar
    23     5    19   ar
    24     9    18    2
    25     9    10    1
    26     3    15   ar
    27    10    11   ar
    28    15    30    1
    29    15    14   ar
    30    11    14   ar
    31    11    29    1
