RY5
  -OEChem-02242320043D

 34 37  0     1  0  0  0  0  0999 V2000
   -3.6380   -0.9620   -0.2000 C   0  0  0  0  0  0  0  0  0  0  0  0
    3.2950    0.7070    0.6050 C   0  0  0  0  0  0  0  0  0  0  0  0
    3.4850   -0.7730    0.3950 C   0  0  0  0  0  0  0  0  0  0  0  0
    4.1350   -1.3980   -0.6940 C   0  0  0  0  0  0  0  0  0  0  0  0
    4.0410   -2.7200   -0.4160 C   0  0  0  0  0  0  0  0  0  0  0  0
    0.8500    1.1150    0.8350 C   0  0  0  0  0  0  0  0  0  0  0  0
   -3.5900    0.2310    0.4950 C   0  0  0  0  0  0  0  0  0  0  0  0
   -2.5300   -1.3920   -0.9090 C   0  0  0  0  0  0  0  0  0  0  0  0
   -1.3830   -0.6230   -0.9260 C   0  0  0  0  0  0  0  0  0  0  0  0
   -1.3340    0.5770   -0.2370 C   0  0  0  0  0  0  0  0  0  0  0  0
   -2.4410    1.0020    0.4800 C   0  0  0  0  0  0  0  0  0  0  0  0
   -2.1390    2.3270    1.1490 C   0  0  0  0  0  0  0  0  0  0  0  0
   -0.8930    2.8760    0.4190 C   0  0  0  0  0  0  0  0  0  0  0  0
   -0.2310    1.5920   -0.1000 C   0  0  1  0  0  0  0  0  0  0  0  0
    1.7500    1.5110   -1.1610 C   0  0  0  0  0  0  0  0  0  0  0  0
    0.4550    1.8220   -1.3710 N   0  0  0  0  0  0  0  0  0  0  0  0
    1.9800    1.1070    0.0960 N   0  0  0  0  0  0  0  0  0  0  0  0
    3.0890   -1.7300    1.1840 N   0  0  0  0  0  0  0  0  0  0  0  0
    2.6120    1.5880   -2.0150 O   0  0  0  0  0  0  0  0  0  0  0  0
    3.3830   -2.8180    0.7480 O   0  0  0  0  0  0  0  0  0  0  0  0
    0.7310    0.8050    2.0010 O   0  0  0  0  0  0  0  0  0  0  0  0
   -5.0830   -1.9240   -0.1780 Cl  0  0  0  0  0  0  0  0  0  0  0  0
    3.3570    0.9350    1.6690 H   0  0  0  0  0  0  0  0  0  0  0  0
    4.0730    1.2530    0.0710 H   0  0  0  0  0  0  0  0  0  0  0  0
    4.5990   -0.9290   -1.5490 H   0  0  0  0  0  0  0  0  0  0  0  0
    4.4210   -3.5350   -1.0150 H   0  0  0  0  0  0  0  0  0  0  0  0
   -4.4530    0.5640    1.0520 H   0  0  0  0  0  0  0  0  0  0  0  0
   -2.5620   -2.3270   -1.4480 H   0  0  0  0  0  0  0  0  0  0  0  0
   -0.5190   -0.9600   -1.4800 H   0  0  0  0  0  0  0  0  0  0  0  0
   -2.9800    3.0110    1.0290 H   0  0  0  0  0  0  0  0  0  0  0  0
   -1.9240    2.1760    2.2070 H   0  0  0  0  0  0  0  0  0  0  0  0
   -1.1820    3.5280   -0.4060 H   0  0  0  0  0  0  0  0  0  0  0  0
   -0.2350    3.4000    1.1130 H   0  0  0  0  0  0  0  0  0  0  0  0
    0.0590    2.1350   -2.1990 H   0  0  0  0  0  0  0  0  0  0  0  0
 18 20  1  0  0  0  0
  5 20  1  0  0  0  0
  3 18  2  0  0  0  0
  4  5  2  0  0  0  0
  2  3  1  0  0  0  0
  3  4  1  0  0  0  0
  2 17  1  0  0  0  0
  6 21  2  0  0  0  0
  6 17  1  0  0  0  0
 15 17  1  0  0  0  0
  6 14  1  0  0  0  0
 15 19  2  0  0  0  0
 15 16  1  0  0  0  0
  8  9  2  0  0  0  0
  9 10  1  0  0  0  0
  1  8  1  0  0  0  0
 14 16  1  0  0  0  0
 10 14  1  0  0  0  0
 13 14  1  0  0  0  0
 10 11  2  0  0  0  0
  1 22  1  0  0  0  0
  1  7  2  0  0  0  0
  7 11  1  0  0  0  0
 11 12  1  0  0  0  0
 12 13  1  0  0  0  0
  2 23  1  0  0  0  0
  2 24  1  0  0  0  0
  4 25  1  0  0  0  0
  5 26  1  0  0  0  0
  7 27  1  0  0  0  0
  8 28  1  0  0  0  0
  9 29  1  0  0  0  0
 12 30  1  0  0  0  0
 12 31  1  0  0  0  0
 13 32  1  0  0  0  0
 13 33  1  0  0  0  0
 16 34  1  0  0  0  0
M  END
> <OPENEYE_ISO_SMILES>
c1cc2c(cc1Cl)CC[C@@]23C(=O)N(C(=O)N3)Cc4ccon4

> <OPENEYE_INCHI>
InChI=1S/C15H12ClN3O3/c16-10-1-2-12-9(7-10)3-5-15(12)13(20)19(14(21)17-15)8-11-4-6-22-18-11/h1-2,4,6-7H,3,5,8H2,(H,17,21)/t15-/m0/s1

> <OPENEYE_INCHIKEY>
BIZQWNOTOCHPKD-HNNXBMFYSA-N

> <FORMULA>
C15H12ClN3O3

$$$$
