@<TRIPOS>MOLECULE
/home/pku/3cl/gett_pdb/7U28/7U28_mol2/ligand/7U28_4WI.pdb
 35 37 0 0 0
SMALL
GASTEIGER

@<TRIPOS>ATOM
      1  C8         0.3550   -0.9590   17.6650 C.2   401  4WI401      0.2410
      2  C3        -0.6990    3.6430   16.1080 C.2   401  4WI401      0.1171
      3  C1        -2.3950    1.2710   14.2320 C.2   401  4WI401      0.2597
      4  C13       -2.5040   -1.4960   13.0620 C.2   401  4WI401      0.2458
      5  C21       -2.6780   -3.9120   10.8260 C.2   401  4WI401      0.3371
      6  C6        -1.8340   -0.1430   18.0210 C.3   401  4WI401      0.0326
      7  C7        -1.7190   -1.5420   18.5940 C.3   401  4WI401      0.1156
      8  C10       -4.2360   -0.1770   11.7370 C.3   401  4WI401      0.0939
      9  C5        -0.6870   -0.0670   17.0120 C.3   401  4WI401      0.0821
     10  C9        -2.3020    0.9470   12.7710 C.3   401  4WI401      0.1535
     11  C11       -4.1630    1.2230   11.2440 C.3   401  4WI401      0.0220
     12  C12       -3.0100    1.9320   11.8760 C.3   401  4WI401      0.0289
     13  C18       -3.0700    1.7890   10.3560 C.3   401  4WI401      0.0037
     14  C19       -2.0570    0.8770    9.7520 C.3   401  4WI401      0.0001
     15  C20       -3.5140    2.9190    9.5030 C.3   401  4WI401      0.0001
     16  C16       -4.7600   -4.4940   13.8620 C.3   401  4WI401      0.0022
     17  C17       -4.7090   -2.2810   14.9050 C.3   401  4WI401      0.0022
     18  C23       -2.7950   -3.8150   15.1360 C.3   401  4WI401      0.0022
     19  C4        -0.1530    1.3470   16.8640 C.3   401  4WI401      0.0371
     20  C2        -1.1560    2.2180   16.1290 C.3   401  4WI401      0.1386
     21  C14       -3.3390   -2.7460   12.8810 C.3   401  4WI401      0.1714
     22  C22       -1.5360   -4.6040   10.1430 C.3   401  4WI401      0.4711
     23  C15       -3.8640   -3.3190   14.1940 C.3   401  4WI401      0.0269
     24  N5        -0.8720    4.4060   17.1290 N.2   401  4WI401     -0.1496
     25  N2        -0.3210   -1.8690   18.4660 N.am  401  4WI401     -0.2054
     26  N3        -3.0480   -0.3120   12.6090 N.am  401  4WI401     -0.2716
     27  N1        -1.2470    1.8400   14.7340 N.am  401  4WI401     -0.1996
     28  N4        -2.4470   -3.6110   12.1480 N.am  401  4WI401     -0.1908
     29  O1         1.5590   -0.8930   17.5010 O.2   401  4WI401     -0.2734
     30  O2        -3.3980    1.0180   14.8830 O.2   401  4WI401     -0.2715
     31  O3        -1.4010   -1.5390   13.5830 O.2   401  4WI401     -0.2730
     32  O4        -3.7410   -3.7220   10.2540 O.2   401  4WI401     -0.2642
     33  F1        -0.2950   -4.1130   10.4150 F     401  4WI401     -0.1620
     34  F2        -1.6610   -4.5400    8.7880 F     401  4WI401     -0.1620
     35  F3        -1.5310   -5.9160   10.4880 F     401  4WI401     -0.1620
@<TRIPOS>BOND
     1    34    22    1
     2    15    13    1
     3    14    13    1
     4    22    33    1
     5    22    35    1
     6    22     5    1
     7    32     5    2
     8    13    11    1
     9    13    12    1
    10     5    28   am
    11    11     8    1
    12    11    12    1
    13     8    26    1
    14    12    10    1
    15    28    21    1
    16    26    10    1
    17    26     4   am
    18    10     3    1
    19    21     4    1
    20    21    23    1
    21     4    31    2
    22    16    23    1
    23    23    17    1
    24    23    18    1
    25     3    27   am
    26     3    30    2
    27    27    20    1
    28     2    20    1
    29     2    24    2
    30    20    19    1
    31    19     9    1
    32     9     1    1
    33     9     6    1
    34    29     1    2
    35     1    25   am
    36     6     7    1
    37    25     7    1
