@<TRIPOS>MOLECULE
/home/pku/3cl/gett_pdb/7UJU/7UJU_mol2/ligand/7UJU_4WI.pdb
 35 37 0 0 0
SMALL
GASTEIGER

@<TRIPOS>ATOM
      1  C8         8.0230   25.9390  -20.5680 C.2   401  4WI401      0.2410
      2  C3         8.1490   21.4300  -18.3700 C.2   401  4WI401      0.1171
      3  C1        10.9450   21.6080  -20.3690 C.2   401  4WI401      0.2597
      4  C13       12.2970   22.9760  -22.7680 C.2   401  4WI401      0.2458
      5  C21       13.9480   23.5410  -25.6270 C.2   401  4WI401      0.3371
      6  C6         9.8910   25.5930  -19.0860 C.3   401  4WI401      0.0326
      7  C7         9.8660   27.0470  -19.5940 C.3   401  4WI401      0.1156
      8  C10       13.8360   21.1380  -21.9130 C.3   401  4WI401      0.0939
      9  C5         8.9520   24.8430  -20.0500 C.3   401  4WI401      0.0821
     10  C9        11.3960   21.0060  -21.6950 C.3   401  4WI401      0.1535
     11  C11       13.4760   19.6980  -21.6040 C.3   401  4WI401      0.0220
     12  C12       11.9710   19.6110  -21.4440 C.3   401  4WI401      0.0289
     13  C18       12.6550   18.8880  -22.5930 C.3   401  4WI401      0.0037
     14  C19       12.7580   17.3780  -22.4370 C.3   401  4WI401      0.0001
     15  C20       12.4510   19.3250  -24.0360 C.3   401  4WI401      0.0001
     16  C16       15.0850   25.7210  -22.8820 C.3   401  4WI401      0.0022
     17  C17       12.6440   26.0970  -22.3880 C.3   401  4WI401      0.0022
     18  C23       14.0190   24.5870  -20.9220 C.3   401  4WI401      0.0022
     19  C4         8.1390   23.6810  -19.4960 C.3   401  4WI401      0.0371
     20  C2         8.9940   22.4980  -19.0380 C.3   401  4WI401      0.1386
     21  C14       13.4960   23.8060  -23.2510 C.3   401  4WI401      0.1714
     22  C22       13.5060   23.8760  -27.0650 C.3   401  4WI401      0.4711
     23  C15       13.7910   25.0650  -22.3680 C.3   401  4WI401      0.0269
     24  N5         7.9960   21.4670  -17.1040 N.2   401  4WI401     -0.1496
     25  N2         8.5520   27.1330  -20.2340 N.am  401  4WI401     -0.2054
     26  N3        12.5310   21.7660  -22.2290 N.am  401  4WI401     -0.2716
     27  N1         9.6300   21.8200  -20.1830 N.am  401  4WI401     -0.1996
     28  N4        13.2660   24.1530  -24.6540 N.am  401  4WI401     -0.1908
     29  O1         6.9530   25.7580  -21.1690 O.2   401  4WI401     -0.2734
     30  O2        11.7780   21.9910  -19.5260 O.2   401  4WI401     -0.2715
     31  O3        11.1420   23.4300  -22.8700 O.2   401  4WI401     -0.2730
     32  O4        14.8900   22.7620  -25.4790 O.2   401  4WI401     -0.2642
     33  F1        12.1750   23.7820  -27.2490 F     401  4WI401     -0.1620
     34  F2        13.8770   25.1280  -27.3690 F     401  4WI401     -0.1620
     35  F3        14.1040   23.0440  -27.9340 F     401  4WI401     -0.1620
@<TRIPOS>BOND
     1    35    22    1
     2    34    22    1
     3    33    22    1
     4    22     5    1
     5     5    32    2
     6     5    28   am
     7    28    21    1
     8    15    13    1
     9    21     4    1
    10    21    23    1
    11    16    23    1
    12    31     4    2
    13     4    26   am
    14    13    14    1
    15    13    11    1
    16    13    12    1
    17    17    23    1
    18    23    18    1
    19    26     8    1
    20    26    10    1
    21     8    11    1
    22    10    12    1
    23    10     3    1
    24    11    12    1
    25    29     1    2
    26     1    25   am
    27     1     9    1
    28     3    27   am
    29     3    30    2
    30    25     7    1
    31    27    20    1
    32     9    19    1
    33     9     6    1
    34     7     6    1
    35    19    20    1
    36    20     2    1
    37     2    24    2
