@<TRIPOS>MOLECULE
/home/pku/3cl/gett_pdb/7EN9/7EN9_mol2/ligand/7EN9_J7O.pdb
 42 47 0 0 0
SMALL
GASTEIGER

@<TRIPOS>ATOM
      1  N1        16.0050   22.8660  -18.2750 N.am  401  J7O401     -0.1997
      2  N3        18.0480   26.2240  -18.2080 N.pl3 401  J7O401     -0.3060
      3  C4        18.8600   22.8180  -16.8870 C.ar  401  J7O401      0.0126
      4  C5        20.2540   22.9120  -16.8660 C.ar  401  J7O401      0.0364
      5  C6        20.9730   24.0160  -17.2410 C.ar  401  J7O401      0.0320
      6  C7        20.2530   25.1210  -17.6860 C.ar  401  J7O401      0.1567
      7  C8        18.8510   25.0680  -17.7130 C.ar  401  J7O401      0.0750
      8  C10       16.5220   27.6510  -19.4510 C.3   401  J7O401      0.0251
      9  C13       13.0810   28.6940  -17.2040 C.2   401  J7O401      0.2505
     10  C15       12.5810   27.5390  -15.0100 C.ar  401  J7O401      0.1034
     11  C17       11.6070   25.3030  -16.3410 C.ar  401  J7O401      0.0225
     12  C20       11.6020   25.1250  -19.1370 C.ar  401  J7O401      0.0420
     13  C21       12.0830   26.2560  -18.5230 C.ar  401  J7O401      0.0035
     14  C22       12.0870   26.3320  -17.0900 C.ar  401  J7O401      0.0076
     15  C24       16.4130   29.6740  -18.3500 C.3   401  J7O401      0.0454
     16  C26       16.4770   30.6220  -20.6660 C.ar  401  J7O401     -0.0042
     17  C28       18.4710   31.7250  -21.4720 C.ar  401  J7O401     -0.0000
     18  C1        14.5460   22.7510  -18.3340 C.3   401  J7O401      0.1388
     19  C11       16.5790   28.1140  -18.3260 C.3   401  J7O401      0.0435
     20  C12       15.6150   27.6640  -17.5940 C.3   401  J7O401      0.0957
     21  C14       12.5860   27.4790  -16.4030 C.ar  401  J7O401      0.0727
     22  C16       11.6600   25.4220  -14.9060 C.ar  401  J7O401      0.0989
     23  C18       11.1200   24.1550  -16.9530 C.ar  401  J7O401      0.0436
     24  C19       11.1170   24.0800  -18.3550 C.ar  401  J7O401      0.1958
     25  C2        16.6480   23.8380  -17.3490 C.2   401  J7O401      0.2661
     26  C23       14.8870   29.8130  -18.4400 C.3   401  J7O401      0.0981
     27  C25       17.0960   30.3600  -19.4670 C.ar  401  J7O401     -0.0207
     28  C27       17.1700   31.3020  -21.6850 C.ar  401  J7O401     -0.0003
     29  C29       19.0810   31.4820  -20.2780 C.ar  401  J7O401     -0.0003
     30  C3        18.1500   23.9170  -17.3200 C.ar  401  J7O401      0.0705
     31  C30       18.3900   30.8030  -19.2560 C.ar  401  J7O401     -0.0042
     32  C31       18.0120   27.6330  -17.6730 C.3   401  J7O401      0.0928
     33  C9        17.4170   26.2220  -19.3910 C.3   401  J7O401      0.0909
     34  N2        21.0090   26.2530  -18.1060 N.pl3 401  J7O401      0.0589
     35  N4        14.4380   28.7870  -17.7480 N.am  401  J7O401     -0.2756
     36  N5        12.1240   26.5060  -14.3240 N.ar  401  J7O401     -0.2422
     37  O1        16.0290   24.5230  -16.6610 O.2   401  J7O401     -0.2683
     38  O2        21.9970   26.5570  -17.4990 O.2   401  J7O401     -0.1261
     39  O3        20.6110   26.9370  -19.2540 O.2   401  J7O401     -0.1261
     40  O4        12.3400   29.6170  -17.4000 O.2   401  J7O401     -0.2699
     41  O5        10.6330   22.9240  -18.9840 O.3   401  J7O401     -0.2866
     42 BR1        21.2210   21.3910  -16.2550 Br    401  J7O401     -0.0489
@<TRIPOS>BOND
     1    28    17   ar
     2    28    16   ar
     3    17    29   ar
     4    16    27   ar
     5    29    31   ar
     6    27    31   ar
     7    27    15    1
     8     8    33    1
     9     8    19    1
    10    33     2    1
    11    39    34    2
    12    12    13   ar
    13    12    24   ar
    14    41    24    1
    15    13    14   ar
    16    26    15    1
    17    26    35    1
    18    24    23   ar
    19    15    19    1
    20    18     1    1
    21    19    32    1
    22    19    20    1
    23     1    25   am
    24     2     7    1
    25     2    32    1
    26    34     6    1
    27    34    38    2
    28    35    20    1
    29    35     9   am
    30     7     6   ar
    31     7    30   ar
    32     6     5   ar
    33    40     9    2
    34    25    30    1
    35    25    37    2
    36    30     3   ar
    37     5     4   ar
    38     9    21    1
    39    14    21   ar
    40    14    11   ar
    41    23    11   ar
    42     3     4   ar
    43     4    42    1
    44    21    10   ar
    45    11    22   ar
    46    10    36   ar
    47    22    36   ar
