@<TRIPOS>MOLECULE
/home/pku/3cl/gett_pdb/5RTF/5RTF_mol2/ligand/5RTF_ISN.pdb
 16 17 0 0 0
SMALL
GASTEIGER

@<TRIPOS>ATOM
      1  C1       -23.1910    4.0910  -24.4820 C.ar  201  ISN201      0.0481
      2  C2       -23.1890    3.4040  -25.6960 C.ar  201  ISN201     -0.0490
      3  C3       -23.0550    2.0080  -25.7090 C.ar  201  ISN201     -0.0610
      4  C4       -22.9310    1.2830  -24.4940 C.ar  201  ISN201     -0.0600
      5  C5       -22.9500    1.9680  -23.2760 C.ar  201  ISN201     -0.0398
      6  N1       -23.1420    4.3710  -22.0980 N.am  201  ISN201     -0.2782
      7  C6       -23.0670    3.3660  -23.2520 C.ar  201  ISN201      0.0448
      8  C7       -23.3080    5.5490  -24.1430 C.2   201  ISN201      0.2493
      9  C10      -23.2850    5.6830  -22.6950 C.2   201  ISN201      0.2887
     10  O8       -23.4490    6.4670  -24.8680 O.2   201  ISN201     -0.2817
     11  O11      -23.3560    6.7150  -22.1360 O.2   201  ISN201     -0.2663
     12  H2       -23.2590    3.8730  -26.4960 H     201  ISN201      0.0625
     13  H3       -23.0390    1.5540  -26.5200 H     201  ISN201      0.0618
     14  H4       -22.8440    0.3570  -24.5090 H     201  ISN201      0.0618
     15  H5       -22.8710    1.4960  -22.4780 H     201  ISN201      0.0636
     16  H1       -23.0800    4.1940  -21.2590 H     201  ISN201      0.1552
@<TRIPOS>BOND
     1    13     3    1
     2    12     2    1
     3     3     2   ar
     4     3     4   ar
     5     2     1   ar
     6    10     8    2
     7    14     4    1
     8     4     5   ar
     9     1     8    1
    10     1     7   ar
    11     8     9    1
    12     5     7   ar
    13     5    15    1
    14     7     6    1
    15     9    11    2
    16     9     6   am
    17     6    16    1
