UHY
  -OEChem-02242320043D

 65 67  0     1  0  0  0  0  0999 V2000
   -2.5220   -0.5400    0.5180 N   0  0  0  0  0  0  0  0  0  0  0  0
    4.0330   -0.0560    0.8500 N   0  0  0  0  0  0  0  0  0  0  0  0
   -1.4860    0.2730    0.2310 C   0  0  0  0  0  0  0  0  0  0  0  0
   -3.5800   -0.6710   -0.3880 C   0  0  0  0  0  0  0  0  0  0  0  0
   -4.8820   -0.4090    0.0200 C   0  0  0  0  0  0  0  0  0  0  0  0
   -5.1560    0.0180    1.4380 C   0  0  0  0  0  0  0  0  0  0  0  0
   -4.9690    1.5310    1.5610 C   0  0  0  0  0  0  0  0  0  0  0  0
   -5.6730   -0.9310   -2.1790 C   0  0  0  0  0  0  0  0  0  0  0  0
   -1.9190   -1.3380   -2.1460 C   0  0  0  0  0  0  0  0  0  0  0  0
    0.9090   -1.6160    0.2020 C   0  0  0  0  0  0  0  0  0  0  0  0
    0.9160   -2.9220    2.5880 C   0  0  0  0  0  0  0  0  0  0  0  0
    2.8370    0.3690    1.2060 C   0  0  0  0  0  0  0  0  0  0  0  0
    4.4290   -0.0450   -0.4070 C   0  0  0  0  0  0  0  0  0  0  0  0
    3.5970    0.4170   -1.4100 C   0  0  0  0  0  0  0  0  0  0  0  0
    5.8080   -0.5430   -0.7570 C   0  0  0  0  0  0  0  0  0  0  0  0
    5.7290   -2.0130   -1.1730 C   0  0  0  0  0  0  0  0  0  0  0  0
   -1.5020    0.9420   -0.7810 O   0  0  0  0  0  0  0  0  0  0  0  0
   -0.3090    0.3520    1.1680 C   0  0  1  0  0  0  0  0  0  0  0  0
    0.3230   -1.0100    1.2970 C   0  0  0  0  0  0  0  0  0  0  0  0
    0.3240   -1.6710    2.5160 C   0  0  0  0  0  0  0  0  0  0  0  0
    1.4730   -3.4700    1.4470 C   0  0  0  0  0  0  0  0  0  0  0  0
    1.4590   -2.8100    0.3060 N   0  0  0  0  0  0  0  0  0  0  0  0
    0.6750    1.2990    0.6370 N   0  0  0  0  0  0  0  0  0  0  0  0
    1.9440    0.8480    0.2550 C   0  0  0  0  0  0  0  0  0  0  0  0
    2.3310    0.8740   -1.0820 C   0  0  0  0  0  0  0  0  0  0  0  0
    6.3720    0.2850   -1.9130 C   0  0  0  0  0  0  0  0  0  0  0  0
    0.3590    2.6030    0.5150 C   0  0  0  0  0  0  0  0  0  0  0  0
   -0.7200    3.0030    0.8980 O   0  0  0  0  0  0  0  0  0  0  0  0
    1.3450    3.5640   -0.0980 C   0  0  0  0  0  0  0  0  0  0  0  0
    0.8020    4.9900    0.0100 C   0  0  0  0  0  0  0  0  0  0  0  0
   -3.3310   -1.0590   -1.6980 C   0  0  0  0  0  0  0  0  0  0  0  0
   -4.3770   -1.1870   -2.5900 C   0  0  0  0  0  0  0  0  0  0  0  0
   -5.9240   -0.5400   -0.8770 C   0  0  0  0  0  0  0  0  0  0  0  0
   -2.5320   -1.0380    1.3510 H   0  0  0  0  0  0  0  0  0  0  0  0
   -6.1800   -0.2450    1.7050 H   0  0  0  0  0  0  0  0  0  0  0  0
   -4.4640   -0.4890    2.1110 H   0  0  0  0  0  0  0  0  0  0  0  0
   -3.9450    1.7940    1.2940 H   0  0  0  0  0  0  0  0  0  0  0  0
   -5.6610    2.0380    0.8890 H   0  0  0  0  0  0  0  0  0  0  0  0
   -5.1680    1.8400    2.5870 H   0  0  0  0  0  0  0  0  0  0  0  0
   -6.4900   -1.0320   -2.8790 H   0  0  0  0  0  0  0  0  0  0  0  0
   -1.5200   -0.4630   -2.6590 H   0  0  0  0  0  0  0  0  0  0  0  0
   -1.3010   -1.5640   -1.2780 H   0  0  0  0  0  0  0  0  0  0  0  0
   -1.9160   -2.1900   -2.8260 H   0  0  0  0  0  0  0  0  0  0  0  0
    0.9120   -1.1080   -0.7510 H   0  0  0  0  0  0  0  0  0  0  0  0
    0.9350   -3.4660    3.5210 H   0  0  0  0  0  0  0  0  0  0  0  0
    2.5480    0.3450    2.2460 H   0  0  0  0  0  0  0  0  0  0  0  0
    3.9310    0.4230   -2.4370 H   0  0  0  0  0  0  0  0  0  0  0  0
    6.4600   -0.4460    0.1120 H   0  0  0  0  0  0  0  0  0  0  0  0
    5.0770   -2.1100   -2.0410 H   0  0  0  0  0  0  0  0  0  0  0  0
    6.7260   -2.3730   -1.4260 H   0  0  0  0  0  0  0  0  0  0  0  0
    5.3270   -2.6030   -0.3500 H   0  0  0  0  0  0  0  0  0  0  0  0
   -0.6460    0.6910    2.1480 H   0  0  0  0  0  0  0  0  0  0  0  0
   -0.1270   -1.2220    3.3890 H   0  0  0  0  0  0  0  0  0  0  0  0
    1.9330   -4.4460    1.4940 H   0  0  0  0  0  0  0  0  0  0  0  0
    1.6600    1.2400   -1.8450 H   0  0  0  0  0  0  0  0  0  0  0  0
    5.7200    0.1880   -2.7810 H   0  0  0  0  0  0  0  0  0  0  0  0
    6.4280    1.3330   -1.6160 H   0  0  0  0  0  0  0  0  0  0  0  0
    7.3690   -0.0750   -2.1650 H   0  0  0  0  0  0  0  0  0  0  0  0
    2.2950    3.4960    0.4300 H   0  0  0  0  0  0  0  0  0  0  0  0
    1.4940    3.3110   -1.1480 H   0  0  0  0  0  0  0  0  0  0  0  0
    0.6530    5.2430    1.0600 H   0  0  0  0  0  0  0  0  0  0  0  0
    1.5150    5.6850   -0.4330 H   0  0  0  0  0  0  0  0  0  0  0  0
   -0.1490    5.0580   -0.5190 H   0  0  0  0  0  0  0  0  0  0  0  0
   -4.1840   -1.4880   -3.6090 H   0  0  0  0  0  0  0  0  0  0  0  0
   -6.9360   -0.3360   -0.5610 H   0  0  0  0  0  0  0  0  0  0  0  0
 21 22  2  0  0  0  0
 11 21  1  0  0  0  0
 10 22  1  0  0  0  0
 11 20  2  0  0  0  0
 10 19  2  0  0  0  0
 19 20  1  0  0  0  0
 18 19  1  0  0  0  0
 29 30  1  0  0  0  0
 27 28  2  0  0  0  0
  3 17  2  0  0  0  0
 27 29  1  0  0  0  0
 23 27  1  0  0  0  0
 18 23  1  0  0  0  0
  3 18  1  0  0  0  0
  2 12  2  0  0  0  0
 12 24  1  0  0  0  0
 23 24  1  0  0  0  0
  1  3  1  0  0  0  0
  9 31  1  0  0  0  0
  2 13  1  0  0  0  0
 24 25  2  0  0  0  0
 31 32  2  0  0  0  0
  4 31  1  0  0  0  0
  8 32  1  0  0  0  0
  1  4  1  0  0  0  0
  4  5  2  0  0  0  0
  8 33  2  0  0  0  0
  5 33  1  0  0  0  0
  5  6  1  0  0  0  0
 13 15  1  0  0  0  0
 13 14  2  0  0  0  0
 14 25  1  0  0  0  0
  6  7  1  0  0  0  0
 15 16  1  0  0  0  0
 15 26  1  0  0  0  0
  1 34  1  0  0  0  0
  6 35  1  0  0  0  0
  6 36  1  0  0  0  0
  7 37  1  0  0  0  0
  7 38  1  0  0  0  0
  7 39  1  0  0  0  0
  8 40  1  0  0  0  0
  9 41  1  0  0  0  0
  9 42  1  0  0  0  0
  9 43  1  0  0  0  0
 10 44  1  0  0  0  0
 11 45  1  0  0  0  0
 12 46  1  0  0  0  0
 14 47  1  0  0  0  0
 15 48  1  0  0  0  0
 16 49  1  0  0  0  0
 16 50  1  0  0  0  0
 16 51  1  0  0  0  0
 18 52  1  0  0  0  0
 20 53  1  0  0  0  0
 21 54  1  0  0  0  0
 25 55  1  0  0  0  0
 26 56  1  0  0  0  0
 26 57  1  0  0  0  0
 26 58  1  0  0  0  0
 29 59  1  0  0  0  0
 29 60  1  0  0  0  0
 30 61  1  0  0  0  0
 30 62  1  0  0  0  0
 30 63  1  0  0  0  0
 32 64  1  0  0  0  0
 33 65  1  0  0  0  0
M  END
> <OPENEYE_ISO_SMILES>
CCc1cccc(c1NC(=O)[C@@H](c2cccnc2)N(c3ccc(nc3)C(C)C)C(=O)CC)C

> <OPENEYE_INCHI>
InChI=1S/C27H32N4O2/c1-6-20-11-8-10-19(5)25(20)30-27(33)26(21-12-9-15-28-16-21)31(24(32)7-2)22-13-14-23(18(3)4)29-17-22/h8-18,26H,6-7H2,1-5H3,(H,30,33)/t26-/m1/s1

> <OPENEYE_INCHIKEY>
HPKVUDPRFZVZGF-AREMUKBSSA-N

> <FORMULA>
C27H32N4O2

$$$$
