RY6
  -OEChem-02242320043D

 43 45  0     1  0  0  0  0  0999 V2000
   -4.0020    0.1320    0.1450 C   0  0  0  0  0  0  0  0  0  0  0  0
   -4.8260    0.7230    1.0950 C   0  0  0  0  0  0  0  0  0  0  0  0
   -4.1790   -1.1440   -0.6490 C   0  0  0  0  0  0  0  0  0  0  0  0
   -2.0470   -2.4020   -0.2250 C   0  0  0  0  0  0  0  0  0  0  0  0
   -2.7720   -1.4880   -1.1800 C   0  0  2  0  0  0  0  0  0  0  0  0
   -2.0920   -0.1040   -1.2370 C   0  0  1  0  0  0  0  0  0  0  0  0
   -3.2520    2.5100    1.3540 C   0  0  0  0  0  0  0  0  0  0  0  0
   -4.4490    1.9130    1.6990 C   0  0  0  0  0  0  0  0  0  0  0  0
    6.0520   -0.2760    1.1330 C   0  0  0  0  0  0  0  0  0  0  0  0
    4.3180    0.3980   -0.3440 C   0  0  0  0  0  0  0  0  0  0  0  0
    3.8580    1.5050   -1.0490 C   0  0  0  0  0  0  0  0  0  0  0  0
    2.5210    1.6200   -1.3580 C   0  0  0  0  0  0  0  0  0  0  0  0
    1.6260    0.6220   -0.9620 C   0  0  0  0  0  0  0  0  0  0  0  0
    0.1930    0.7410   -1.2920 C   0  0  0  0  0  0  0  0  0  0  0  0
   -2.4300    1.9180    0.4140 C   0  0  0  0  0  0  0  0  0  0  0  0
   -2.8040    0.7300   -0.1930 C   0  0  0  0  0  0  0  0  0  0  0  0
    2.0920   -0.4890   -0.2540 C   0  0  0  0  0  0  0  0  0  0  0  0
    3.4310   -0.6000    0.0470 C   0  0  0  0  0  0  0  0  0  0  0  0
    7.3560   -0.3080    1.4720 N   0  0  0  0  0  0  0  0  0  0  0  0
    5.6730    0.2850   -0.0330 N   0  0  0  0  0  0  0  0  0  0  0  0
   -0.6690   -0.2220   -0.9100 N   0  0  0  0  0  0  0  0  0  0  0  0
   -2.2130   -2.2850    0.9660 O   0  0  0  0  0  0  0  0  0  0  0  0
   -1.2180   -3.3450   -0.6980 O   0  0  0  0  0  0  0  0  0  0  0  0
   -6.0030    0.1340    1.4340 O   0  0  0  0  0  0  0  0  0  0  0  0
   -0.2110    1.7080   -1.9090 O   0  0  0  0  0  0  0  0  0  0  0  0
    5.2180   -0.7520    1.8780 O   0  0  0  0  0  0  0  0  0  0  0  0
   -4.5460   -1.9430   -0.0040 H   0  0  0  0  0  0  0  0  0  0  0  0
   -4.8670   -0.9810   -1.4790 H   0  0  0  0  0  0  0  0  0  0  0  0
   -2.8300   -1.9360   -2.1720 H   0  0  0  0  0  0  0  0  0  0  0  0
   -2.2170    0.3390   -2.2250 H   0  0  0  0  0  0  0  0  0  0  0  0
   -2.9550    3.4370    1.8230 H   0  0  0  0  0  0  0  0  0  0  0  0
   -5.0900    2.3720    2.4370 H   0  0  0  0  0  0  0  0  0  0  0  0
    4.5500    2.2760   -1.3550 H   0  0  0  0  0  0  0  0  0  0  0  0
    2.1650    2.4800   -1.9050 H   0  0  0  0  0  0  0  0  0  0  0  0
   -1.4920    2.3850    0.1500 H   0  0  0  0  0  0  0  0  0  0  0  0
    1.4030   -1.2620    0.0540 H   0  0  0  0  0  0  0  0  0  0  0  0
    3.7910   -1.4590    0.5950 H   0  0  0  0  0  0  0  0  0  0  0  0
    8.0220    0.0720    0.8770 H   0  0  0  0  0  0  0  0  0  0  0  0
    7.6290   -0.7110    2.3110 H   0  0  0  0  0  0  0  0  0  0  0  0
    6.3420    0.6090   -0.6560 H   0  0  0  0  0  0  0  0  0  0  0  0
   -0.3470   -0.9930   -0.4170 H   0  0  0  0  0  0  0  0  0  0  0  0
   -0.7760   -3.9080   -0.0470 H   0  0  0  0  0  0  0  0  0  0  0  0
   -5.9330   -0.4900    2.1690 H   0  0  0  0  0  0  0  0  0  0  0  0
  2 24  1  0  0  0  0
  2  8  2  0  0  0  0
  7  8  1  0  0  0  0
  1  2  1  0  0  0  0
  7 15  2  0  0  0  0
  1  3  1  0  0  0  0
  1 16  2  0  0  0  0
  3  5  1  0  0  0  0
 15 16  1  0  0  0  0
  6 16  1  0  0  0  0
  5  6  1  0  0  0  0
  6 21  1  0  0  0  0
  4  5  1  0  0  0  0
 14 25  2  0  0  0  0
 14 21  1  0  0  0  0
 13 14  1  0  0  0  0
  4 22  2  0  0  0  0
  4 23  1  0  0  0  0
 13 17  2  0  0  0  0
 17 18  1  0  0  0  0
 12 13  1  0  0  0  0
 11 12  2  0  0  0  0
 10 18  2  0  0  0  0
 10 11  1  0  0  0  0
 10 20  1  0  0  0  0
  9 26  2  0  0  0  0
  9 20  1  0  0  0  0
  9 19  1  0  0  0  0
  3 27  1  0  0  0  0
  3 28  1  0  0  0  0
  5 29  1  0  0  0  0
  6 30  1  0  0  0  0
  7 31  1  0  0  0  0
  8 32  1  0  0  0  0
 11 33  1  0  0  0  0
 12 34  1  0  0  0  0
 15 35  1  0  0  0  0
 17 36  1  0  0  0  0
 18 37  1  0  0  0  0
 19 38  1  0  0  0  0
 19 39  1  0  0  0  0
 20 40  1  0  0  0  0
 21 41  1  0  0  0  0
 23 42  1  0  0  0  0
 24 43  1  0  0  0  0
M  END
> <OPENEYE_ISO_SMILES>
c1cc2c(c(c1)O)C[C@@H]([C@@H]2NC(=O)c3ccc(cc3)NC(=O)N)C(=O)O

> <OPENEYE_INCHI>
InChI=1S/C18H17N3O5/c19-18(26)20-10-6-4-9(5-7-10)16(23)21-15-11-2-1-3-14(22)12(11)8-13(15)17(24)25/h1-7,13,15,22H,8H2,(H,21,23)(H,24,25)(H3,19,20,26)/t13-,15+/m0/s1

> <OPENEYE_INCHIKEY>
UYUBQOHPPHHZPI-DZGCQCFKSA-N

> <FORMULA>
C18H17N3O5

$$$$
