RYC
  -OEChem-02242320043D

 43 45  0     1  0  0  0  0  0999 V2000
   -6.2080    0.4870   -0.7440 C   0  0  0  0  0  0  0  0  0  0  0  0
   -4.2710   -0.7330   -0.1150 C   0  0  0  0  0  0  0  0  0  0  0  0
   -3.3800    0.2440   -0.5460 C   0  0  0  0  0  0  0  0  0  0  0  0
   -2.0670    0.2110   -0.1330 C   0  0  0  0  0  0  0  0  0  0  0  0
   -1.6300   -0.8050    0.7200 C   0  0  0  0  0  0  0  0  0  0  0  0
   -0.2220   -0.8470    1.1600 C   0  0  0  0  0  0  0  0  0  0  0  0
    2.0400    0.0580    1.1800 C   0  0  2  0  0  0  0  0  0  0  0  0
    2.6320    1.4830    1.2160 C   0  0  2  0  0  0  0  0  0  0  0  0
    1.9280    2.3810    0.2310 C   0  0  0  0  0  0  0  0  0  0  0  0
    4.0970    1.2440    0.7900 C   0  0  0  0  0  0  0  0  0  0  0  0
    4.0640   -0.0140   -0.0500 C   0  0  0  0  0  0  0  0  0  0  0  0
    4.9980   -0.5250   -0.9430 C   0  0  0  0  0  0  0  0  0  0  0  0
    4.7460   -1.7160   -1.6070 C   0  0  0  0  0  0  0  0  0  0  0  0
    3.5640   -2.3930   -1.3800 C   0  0  0  0  0  0  0  0  0  0  0  0
    2.6360   -1.8840   -0.4930 C   0  0  0  0  0  0  0  0  0  0  0  0
    2.8830   -0.6960    0.1740 C   0  0  0  0  0  0  0  0  0  0  0  0
   -2.5270   -1.7860    1.1510 C   0  0  0  0  0  0  0  0  0  0  0  0
   -3.8400   -1.7440    0.7390 C   0  0  0  0  0  0  0  0  0  0  0  0
   -7.4570    0.5240   -1.2500 N   0  0  0  0  0  0  0  0  0  0  0  0
   -5.6010   -0.6970   -0.5340 N   0  0  0  0  0  0  0  0  0  0  0  0
    0.6430    0.0990    0.7430 N   0  0  0  0  0  0  0  0  0  0  0  0
    0.9110    3.1570    0.6380 O   0  0  0  0  0  0  0  0  0  0  0  0
    2.2790    2.4020   -0.9250 O   0  0  0  0  0  0  0  0  0  0  0  0
    6.1610    0.1420   -1.1650 O   0  0  0  0  0  0  0  0  0  0  0  0
    0.1590   -1.7350    1.8990 O   0  0  0  0  0  0  0  0  0  0  0  0
   -5.6280    1.5230   -0.4820 O   0  0  0  0  0  0  0  0  0  0  0  0
   -3.7190    1.0300   -1.2060 H   0  0  0  0  0  0  0  0  0  0  0  0
   -1.3760    0.9700   -0.4690 H   0  0  0  0  0  0  0  0  0  0  0  0
    2.1150   -0.4070    2.1630 H   0  0  0  0  0  0  0  0  0  0  0  0
    2.5840    1.8980    2.2230 H   0  0  0  0  0  0  0  0  0  0  0  0
    4.4610    2.0850    0.1990 H   0  0  0  0  0  0  0  0  0  0  0  0
    4.7270    1.0990    1.6680 H   0  0  0  0  0  0  0  0  0  0  0  0
    5.4730   -2.1130   -2.3010 H   0  0  0  0  0  0  0  0  0  0  0  0
    3.3650   -3.3210   -1.8970 H   0  0  0  0  0  0  0  0  0  0  0  0
    1.7120   -2.4160   -0.3180 H   0  0  0  0  0  0  0  0  0  0  0  0
   -2.1930   -2.5730    1.8100 H   0  0  0  0  0  0  0  0  0  0  0  0
   -4.5350   -2.5010    1.0720 H   0  0  0  0  0  0  0  0  0  0  0  0
   -7.9180   -0.3030   -1.4630 H   0  0  0  0  0  0  0  0  0  0  0  0
   -7.8950    1.3760   -1.4010 H   0  0  0  0  0  0  0  0  0  0  0  0
   -6.0880   -1.5240   -0.6740 H   0  0  0  0  0  0  0  0  0  0  0  0
    0.3390    0.8080    0.1540 H   0  0  0  0  0  0  0  0  0  0  0  0
    0.4910    3.7160   -0.0290 H   0  0  0  0  0  0  0  0  0  0  0  0
    6.8810   -0.1130   -0.5720 H   0  0  0  0  0  0  0  0  0  0  0  0
 13 14  2  0  0  0  0
 14 15  1  0  0  0  0
 12 13  1  0  0  0  0
 15 16  2  0  0  0  0
 12 24  1  0  0  0  0
 11 12  2  0  0  0  0
 11 16  1  0  0  0  0
  7 16  1  0  0  0  0
 10 11  1  0  0  0  0
  7  8  1  0  0  0  0
  7 21  1  0  0  0  0
  8 10  1  0  0  0  0
  8  9  1  0  0  0  0
  6 25  2  0  0  0  0
  6 21  1  0  0  0  0
  5  6  1  0  0  0  0
  9 23  2  0  0  0  0
  9 22  1  0  0  0  0
  5 17  2  0  0  0  0
  4  5  1  0  0  0  0
 17 18  1  0  0  0  0
  3  4  2  0  0  0  0
  2 18  2  0  0  0  0
  2  3  1  0  0  0  0
  2 20  1  0  0  0  0
  1 26  2  0  0  0  0
  1 20  1  0  0  0  0
  1 19  1  0  0  0  0
  3 27  1  0  0  0  0
  4 28  1  0  0  0  0
  7 29  1  0  0  0  0
  8 30  1  0  0  0  0
 10 31  1  0  0  0  0
 10 32  1  0  0  0  0
 13 33  1  0  0  0  0
 14 34  1  0  0  0  0
 15 35  1  0  0  0  0
 17 36  1  0  0  0  0
 18 37  1  0  0  0  0
 19 38  1  0  0  0  0
 19 39  1  0  0  0  0
 20 40  1  0  0  0  0
 21 41  1  0  0  0  0
 22 42  1  0  0  0  0
 24 43  1  0  0  0  0
M  END
> <OPENEYE_ISO_SMILES>
c1cc2c(c(c1)O)C[C@H]([C@H]2NC(=O)c3ccc(cc3)NC(=O)N)C(=O)O

> <OPENEYE_INCHI>
InChI=1S/C18H17N3O5/c19-18(26)20-10-6-4-9(5-7-10)16(23)21-15-11-2-1-3-14(22)12(11)8-13(15)17(24)25/h1-7,13,15,22H,8H2,(H,21,23)(H,24,25)(H3,19,20,26)/t13-,15+/m1/s1

> <OPENEYE_INCHIKEY>
UYUBQOHPPHHZPI-HIFRSBDPSA-N

> <FORMULA>
C18H17N3O5

$$$$
