ZQA
  -OEChem-02242320043D

 21 22  0     0  0  0  0  0  0999 V2000
   -2.6170    0.6620    0.1430 N   0  0  0  0  0  0  0  0  0  0  0  0
    3.3810   -1.9620    0.6340 C   0  0  0  0  0  0  0  0  0  0  0  0
    3.3500   -0.8440   -0.4100 C   0  0  0  0  0  0  0  0  0  0  0  0
    2.0990   -0.0220   -0.2290 C   0  0  0  0  0  0  0  0  0  0  0  0
    2.1400    1.3030   -0.0620 C   0  0  0  0  0  0  0  0  0  0  0  0
    0.4870    1.8880    0.1130 S   0  0  0  0  0  0  0  0  0  0  0  0
   -0.1110    0.2400   -0.0620 C   0  0  0  0  0  0  0  0  0  0  0  0
    0.9020   -0.5640   -0.2310 N   0  0  0  0  0  0  0  0  0  0  0  0
   -1.5260   -0.1640   -0.0290 C   0  0  0  0  0  0  0  0  0  0  0  0
   -2.0180   -1.4290   -0.1600 C   0  0  0  0  0  0  0  0  0  0  0  0
   -3.3500   -1.3630   -0.0710 N   0  0  0  0  0  0  0  0  0  0  0  0
   -3.7160   -0.1220    0.1100 C   0  0  0  0  0  0  0  0  0  0  0  0
   -2.5980    1.6230    0.2680 H   0  0  0  0  0  0  0  0  0  0  0  0
    3.3750   -1.5260    1.6330 H   0  0  0  0  0  0  0  0  0  0  0  0
    2.5060   -2.5990    0.5100 H   0  0  0  0  0  0  0  0  0  0  0  0
    4.2850   -2.5560    0.5030 H   0  0  0  0  0  0  0  0  0  0  0  0
    4.2250   -0.2060   -0.2870 H   0  0  0  0  0  0  0  0  0  0  0  0
    3.3560   -1.2800   -1.4090 H   0  0  0  0  0  0  0  0  0  0  0  0
    3.0320    1.9110   -0.0370 H   0  0  0  0  0  0  0  0  0  0  0  0
   -1.4340   -2.3260   -0.3100 H   0  0  0  0  0  0  0  0  0  0  0  0
   -4.7340    0.2220    0.2200 H   0  0  0  0  0  0  0  0  0  0  0  0
  2  3  1  0  0  0  0
  4  5  2  0  0  0  0
  5  6  1  0  0  0  0
  3  4  1  0  0  0  0
  4  8  1  0  0  0  0
  6  7  1  0  0  0  0
  7  8  2  0  0  0  0
  7  9  1  0  0  0  0
  9 10  2  0  0  0  0
  1  9  1  0  0  0  0
 10 11  1  0  0  0  0
  1 12  1  0  0  0  0
 11 12  2  0  0  0  0
  1 13  1  0  0  0  0
  2 14  1  0  0  0  0
  2 15  1  0  0  0  0
  2 16  1  0  0  0  0
  3 17  1  0  0  0  0
  3 18  1  0  0  0  0
  5 19  1  0  0  0  0
 10 20  1  0  0  0  0
 12 21  1  0  0  0  0
M  END
> <OPENEYE_ISO_SMILES>
CCc1csc(n1)c2cnc[nH]2

> <OPENEYE_INCHI>
InChI=1S/C8H9N3S/c1-2-6-4-12-8(11-6)7-3-9-5-10-7/h3-5H,2H2,1H3,(H,9,10)

> <OPENEYE_INCHIKEY>
RXFWINHPQUVOEC-UHFFFAOYSA-N

> <FORMULA>
C8H9N3S

$$$$
