@<TRIPOS>MOLECULE
/home/pku/3cl/gett_pdb/7SFI/7SFI_mol2/ligand/7SFI_91Z.pdb
 37 40 0 0 0
SMALL
GASTEIGER

@<TRIPOS>ATOM
      1  N1       -19.7740   16.1440  -25.3650 N.am  401  91Z401     -0.2715
      2  N3       -18.1650   18.2990  -27.6940 N.am  401  91Z401     -0.2024
      3  C4       -20.9130   14.7260  -26.8910 C.3   401  91Z401      0.0220
      4  C5       -19.7600   13.8690  -27.3620 C.3   401  91Z401      0.0037
      5  C6       -18.7480   13.3220  -26.3750 C.3   401  91Z401      0.0001
      6  C7       -20.0260   12.9440  -28.5330 C.3   401  91Z401      0.0001
      7  C8       -20.9370   15.2490  -25.4560 C.3   401  91Z401      0.0939
      8  C10      -20.0700   16.5680  -22.9550 C.3   401  91Z401      0.1970
      9  C13      -19.3310   17.3730  -18.1340 C.ar  401  91Z401      0.0607
     10  C15      -21.1190   15.8730  -18.7470 C.ar  401  91Z401      0.0607
     11  C17      -18.1740   19.6520  -28.2600 C.3   401  91Z401      0.1410
     12  C20      -17.1700   20.5070  -27.4980 C.3   401  91Z401      0.0342
     13  C21      -17.5180   20.7380  -26.0290 C.3   401  91Z401      0.0818
     14  C22      -18.7460   21.6200  -25.7290 C.3   401  91Z401      0.0326
     15  C24      -16.3820   21.4530  -25.3180 C.2   401  91Z401      0.2410
     16  O1       -20.3310   18.3030  -27.0640 O.2   401  91Z401     -0.2716
     17  C1       -19.2460   17.7410  -27.1480 C.2   401  91Z401      0.2595
     18  C2       -19.0720   16.3170  -26.6410 C.3   401  91Z401      0.1535
     19  C3       -19.7380   15.3530  -27.6150 C.3   401  91Z401      0.0289
     20  C9       -19.3170   16.7690  -24.2600 C.2   401  91Z401      0.2480
     21  N2       -19.5730   17.3560  -21.8410 N.pl3 401  91Z401     -0.2233
     22  C11      -19.8660   17.0340  -20.4930 C.ar  401  91Z401      0.1207
     23  C12      -19.0980   17.6120  -19.4800 C.ar  401  91Z401      0.1593
     24  F1       -18.1350   18.4880  -19.8420 F     401  91Z401     -0.2027
     25  C14      -20.3450   16.5040  -17.8080 C.ar  401  91Z401      0.1447
     26  F2       -20.6000   16.2410  -16.4960 F     401  91Z401     -0.2040
     27  C16      -20.8940   16.1760  -20.0710 C.ar  401  91Z401      0.1593
     28  F3       -21.6720   15.5730  -20.9920 F     401  91Z401     -0.2027
     29  O2       -18.3070   17.4730  -24.3000 O.2   401  91Z401     -0.2729
     30  C18      -17.9200   19.5380  -29.7750 C.3   401  91Z401      0.3143
     31  O3       -18.8020   18.5540  -30.2810 O.3   401  91Z401     -0.2051
     32  C19      -18.2260   20.8410  -30.4850 C.2   401  91Z401      0.5761
     33  N4       -19.2810   20.8820  -31.4860 N.am  401  91Z401      0.4881
     34  O4       -17.6030   21.8180  -30.2550 O.2   401  91Z401     -0.2019
     35  C23      -18.3700   22.3620  -24.4590 C.3   401  91Z401      0.1156
     36  N5       -16.9090   22.3940  -24.5140 N.am  401  91Z401     -0.2054
     37  O5       -15.1620   21.2350  -25.5010 O.2   401  91Z401     -0.2734
@<TRIPOS>UNITY_ATOM_ATTR
33 1
charge 1
@<TRIPOS>BOND
     1    33    32    1
     2    32    34    2
     3    32    30    1
     4    31    30    1
     5    30    11    1
     6     6     4    1
     7    11     2    1
     8    11    12    1
     9     2    17   am
    10    19     4    1
    11    19     3    1
    12    19    18    1
    13    12    13    1
    14     4     3    1
    15     4     5    1
    16    17    16    2
    17    17    18    1
    18     3     7    1
    19    18     1    1
    20    13    14    1
    21    13    15    1
    22    14    35    1
    23    37    15    2
    24     7     1    1
    25     1    20   am
    26    15    36   am
    27    36    35    1
    28    29    20    2
    29    20     8    1
    30     8    21    1
    31    21    22    1
    32    28    27    1
    33    22    27   ar
    34    22    23   ar
    35    27    10   ar
    36    24    23    1
    37    23     9   ar
    38    10    25   ar
    39     9    25   ar
    40    25    26    1
