GOL
  -OEChem-02242320023D

 14 13  0     0  0  0  0  0  0999 V2000
   -1.2490   -0.6650    0.2950 C   0  0  0  0  0  0  0  0  0  0  0  0
   -2.4130   -0.0870   -0.3000 O   0  0  0  0  0  0  0  0  0  0  0  0
    0.0000    0.0340   -0.2450 C   0  0  0  0  0  0  0  0  0  0  0  0
    0.0000    1.4000    0.1740 O   0  0  0  0  0  0  0  0  0  0  0  0
    1.2490   -0.6650    0.2950 C   0  0  0  0  0  0  0  0  0  0  0  0
    2.4130   -0.0870   -0.3000 O   0  0  0  0  0  0  0  0  0  0  0  0
   -1.2950   -0.5430    1.3770 H   0  0  0  0  0  0  0  0  0  0  0  0
   -1.2060   -1.7270    0.0510 H   0  0  0  0  0  0  0  0  0  0  0  0
   -3.2440   -0.4830   -0.0030 H   0  0  0  0  0  0  0  0  0  0  0  0
   -0.0000   -0.0120   -1.3340 H   0  0  0  0  0  0  0  0  0  0  0  0
    0.0000    1.5170    1.1340 H   0  0  0  0  0  0  0  0  0  0  0  0
    1.2950   -0.5430    1.3770 H   0  0  0  0  0  0  0  0  0  0  0  0
    1.2060   -1.7270    0.0510 H   0  0  0  0  0  0  0  0  0  0  0  0
    3.2440   -0.4830   -0.0030 H   0  0  0  0  0  0  0  0  0  0  0  0
  1  2  1  0  0  0  0
  1  3  1  0  0  0  0
  1  7  1  0  0  0  0
  1  8  1  0  0  0  0
  2  9  1  0  0  0  0
  3  4  1  0  0  0  0
  3  5  1  0  0  0  0
  3 10  1  0  0  0  0
  4 11  1  0  0  0  0
  5  6  1  0  0  0  0
  5 12  1  0  0  0  0
  5 13  1  0  0  0  0
  6 14  1  0  0  0  0
M  END
> <OPENEYE_ISO_SMILES>
C(C(CO)O)O

> <OPENEYE_INCHI>
InChI=1S/C3H8O3/c4-1-3(6)2-5/h3-6H,1-2H2

> <OPENEYE_INCHIKEY>
PEDCQBHIVMGVHV-UHFFFAOYSA-N

> <FORMULA>
C3H8O3

$$$$
