PIM
  -OEChem-02242320033D

 19 20  0     0  0  0  0  0  0999 V2000
   -0.9620    0.4750    1.8300 N   0  0  0  0  0  0  0  0  0  0  0  0
   -0.5450    0.2690    3.0990 C   0  0  0  0  0  0  0  0  0  0  0  0
    0.6260   -0.3060    3.0720 N   0  0  0  0  0  0  0  0  0  0  0  0
    1.0060   -0.4900    1.8030 C   0  0  0  0  0  0  0  0  0  0  0  0
    0.0200   -0.0110    0.9980 C   0  0  0  0  0  0  0  0  0  0  0  0
    0.0080   -0.0050   -0.4810 C   0  0  0  0  0  0  0  0  0  0  0  0
    1.1740    0.2900   -1.1890 C   0  0  0  0  0  0  0  0  0  0  0  0
    1.1570    0.2940   -2.5680 C   0  0  0  0  0  0  0  0  0  0  0  0
   -0.0110    0.0050   -3.2500 C   0  0  0  0  0  0  0  0  0  0  0  0
   -1.1700   -0.2880   -2.5530 C   0  0  0  0  0  0  0  0  0  0  0  0
   -1.1650   -0.3010   -1.1740 C   0  0  0  0  0  0  0  0  0  0  0  0
   -1.7970    0.8850    1.5580 H   0  0  0  0  0  0  0  0  0  0  0  0
   -1.0920    0.5370    3.9900 H   0  0  0  0  0  0  0  0  0  0  0  0
    1.9300   -0.9430    1.4750 H   0  0  0  0  0  0  0  0  0  0  0  0
    2.0870    0.5160   -0.6580 H   0  0  0  0  0  0  0  0  0  0  0  0
    2.0580    0.5230   -3.1180 H   0  0  0  0  0  0  0  0  0  0  0  0
   -0.0200    0.0100   -4.3300 H   0  0  0  0  0  0  0  0  0  0  0  0
   -2.0800   -0.5120   -3.0910 H   0  0  0  0  0  0  0  0  0  0  0  0
   -2.0700   -0.5320   -0.6310 H   0  0  0  0  0  0  0  0  0  0  0  0
  1  2  1  0  0  0  0
  1  5  1  0  0  0  0
  1 12  1  0  0  0  0
  2  3  2  0  0  0  0
  2 13  1  0  0  0  0
  3  4  1  0  0  0  0
  4  5  2  0  0  0  0
  4 14  1  0  0  0  0
  5  6  1  0  0  0  0
  6  7  2  0  0  0  0
  6 11  1  0  0  0  0
  7  8  1  0  0  0  0
  7 15  1  0  0  0  0
  8  9  2  0  0  0  0
  8 16  1  0  0  0  0
  9 10  1  0  0  0  0
  9 17  1  0  0  0  0
 10 11  2  0  0  0  0
 10 18  1  0  0  0  0
 11 19  1  0  0  0  0
M  END
> <OPENEYE_ISO_SMILES>
c1ccc(cc1)c2cnc[nH]2

> <OPENEYE_INCHI>
InChI=1S/C9H8N2/c1-2-4-8(5-3-1)9-6-10-7-11-9/h1-7H,(H,10,11)

> <OPENEYE_INCHIKEY>
XHLKOHSAWQPOFO-UHFFFAOYSA-N

> <FORMULA>
C9H8N2

$$$$
