RQI
  -OEChem-02242320043D

 34 36  0     0  0  0  0  0  0999 V2000
    6.5890    2.0340    0.5000 C   0  0  0  0  0  0  0  0  0  0  0  0
    5.5960    0.0810    0.2290 C   0  0  0  0  0  0  0  0  0  0  0  0
    5.1980   -1.2410    0.0660 C   0  0  0  0  0  0  0  0  0  0  0  0
    3.8620   -1.5460   -0.0670 C   0  0  0  0  0  0  0  0  0  0  0  0
    2.8970   -0.5270   -0.0400 C   0  0  0  0  0  0  0  0  0  0  0  0
    1.4690   -0.8620   -0.1940 C   0  0  0  0  0  0  0  0  0  0  0  0
    3.2860    0.7990    0.1230 C   0  0  0  0  0  0  0  0  0  0  0  0
    4.6360    1.1100    0.2680 C   0  0  0  0  0  0  0  0  0  0  0  0
   -6.2750   -0.1520    1.1750 C   0  0  0  0  0  0  0  0  0  0  0  0
   -5.2280    0.1760    0.1950 C   0  0  0  0  0  0  0  0  0  0  0  0
   -5.4520    0.2300   -1.1380 C   0  0  0  0  0  0  0  0  0  0  0  0
   -3.1690    0.7240   -0.4340 C   0  0  0  0  0  0  0  0  0  0  0  0
   -1.7100    1.0660   -0.2760 C   0  0  0  0  0  0  0  0  0  0  0  0
   -0.8770   -0.2160   -0.3300 C   0  0  0  0  0  0  0  0  0  0  0  0
    3.4790   -2.8320   -0.2250 F   0  0  0  0  0  0  0  0  0  0  0  0
    0.5420    0.1160   -0.1770 N   0  0  0  0  0  0  0  0  0  0  0  0
    6.8190    0.6970    0.3840 N   0  0  0  0  0  0  0  0  0  0  0  0
    5.3140    2.2770    0.4320 N   0  0  0  0  0  0  0  0  0  0  0  0
   -3.9670    0.4560    0.5390 N   0  0  0  0  0  0  0  0  0  0  0  0
   -5.9810   -0.1870    2.4900 O   0  0  0  0  0  0  0  0  0  0  0  0
    1.1280   -2.0200   -0.3360 O   0  0  0  0  0  0  0  0  0  0  0  0
   -7.4060   -0.3920    0.7980 O   0  0  0  0  0  0  0  0  0  0  0  0
   -3.9930    0.6430   -1.9270 S   0  0  0  0  0  0  0  0  0  0  0  0
    7.3550    2.7840    0.6330 H   0  0  0  0  0  0  0  0  0  0  0  0
    5.9370   -2.0280    0.0440 H   0  0  0  0  0  0  0  0  0  0  0  0
    2.5440    1.5830    0.1430 H   0  0  0  0  0  0  0  0  0  0  0  0
   -6.3990    0.0430   -1.6240 H   0  0  0  0  0  0  0  0  0  0  0  0
   -1.4040    1.7320   -1.0830 H   0  0  0  0  0  0  0  0  0  0  0  0
   -1.5540    1.5600    0.6830 H   0  0  0  0  0  0  0  0  0  0  0  0
   -1.1830   -0.8830    0.4760 H   0  0  0  0  0  0  0  0  0  0  0  0
   -1.0330   -0.7110   -1.2890 H   0  0  0  0  0  0  0  0  0  0  0  0
    0.8140    1.0400   -0.0640 H   0  0  0  0  0  0  0  0  0  0  0  0
    7.6840    0.2590    0.4070 H   0  0  0  0  0  0  0  0  0  0  0  0
   -6.7020   -0.4070    3.0950 H   0  0  0  0  0  0  0  0  0  0  0  0
 12 23  1  0  0  0  0
 11 23  1  0  0  0  0
 12 13  1  0  0  0  0
 13 14  1  0  0  0  0
 12 19  2  0  0  0  0
 10 11  2  0  0  0  0
 14 16  1  0  0  0  0
 10 19  1  0  0  0  0
  9 10  1  0  0  0  0
  6 21  2  0  0  0  0
  6 16  1  0  0  0  0
  5  6  1  0  0  0  0
  9 22  2  0  0  0  0
  9 20  1  0  0  0  0
  5  7  2  0  0  0  0
  4  5  1  0  0  0  0
  7  8  1  0  0  0  0
  4 15  1  0  0  0  0
  3  4  2  0  0  0  0
  8 18  1  0  0  0  0
  2  8  2  0  0  0  0
  2  3  1  0  0  0  0
  1 18  2  0  0  0  0
  2 17  1  0  0  0  0
  1 17  1  0  0  0  0
  1 24  1  0  0  0  0
  3 25  1  0  0  0  0
  7 26  1  0  0  0  0
 11 27  1  0  0  0  0
 13 28  1  0  0  0  0
 13 29  1  0  0  0  0
 14 30  1  0  0  0  0
 14 31  1  0  0  0  0
 16 32  1  0  0  0  0
 17 33  1  0  0  0  0
 20 34  1  0  0  0  0
M  END
> <OPENEYE_ISO_SMILES>
c1c(c(cc2c1nc[nH]2)F)C(=O)NCCc3nc(cs3)C(=O)O

> <OPENEYE_INCHI>
InChI=1S/C14H11FN4O3S/c15-8-4-10-9(17-6-18-10)3-7(8)13(20)16-2-1-12-19-11(5-23-12)14(21)22/h3-6H,1-2H2,(H,16,20)(H,17,18)(H,21,22)

> <OPENEYE_INCHIKEY>
MWIHDBPJGZGAQB-UHFFFAOYSA-N

> <FORMULA>
C14H11FN4O3S

$$$$
