@<TRIPOS>MOLECULE
/home/pku/3cl/gett_pdb/7CZ4/7CZ4_mol2/ligand/7CZ4_APR.pdb
 36 39 0 0 0
SMALL
GASTEIGER

@<TRIPOS>ATOM
      1  N1        18.8370    0.1040  -11.8820 N.ar  201  APR201     -0.2040
      2  C2        19.2680    0.9000  -10.8930 C.ar  201  APR201      0.2016
      3  N3        19.8450    0.5790   -9.7380 N.ar  201  APR201     -0.2048
      4  C4        19.9540   -0.7530   -9.6310 C.ar  201  APR201      0.1692
      5  C5        19.5340   -1.6970  -10.5410 C.ar  201  APR201      0.1518
      6  C6        18.9300   -1.2330  -11.7220 C.ar  201  APR201      0.1919
      7  N6        18.4950   -2.0210  -12.6990 N.pl3 201  APR201     -0.1054
      8  N7        19.8170   -2.9730  -10.0720 N.ar  201  APR201     -0.2193
      9  C8        20.3960   -2.7840   -8.9080 C.ar  201  APR201      0.1816
     10  N9        20.5010   -1.4480   -8.5880 N.ar  201  APR201     -0.2693
     11  C1'       21.0960   -0.8600   -7.4020 C.3   201  APR201      0.2409
     12  C2'       21.2070   -1.8100   -6.2110 C.3   201  APR201      0.2337
     13  O2'       20.0090   -1.8840   -5.4740 O.3   201  APR201     -0.2155
     14  C3'       22.3220   -1.1240   -5.4230 C.3   201  APR201      0.2161
     15  O3'       21.6500   -0.0920   -4.7150 O.3   201  APR201     -0.2175
     16  O4'       22.4180   -0.4810   -7.7130 O.3   201  APR201     -0.3306
     17  C4'       23.2630   -0.6580   -6.5470 C.3   201  APR201      0.1801
     18  C5'       24.3830   -1.6010   -6.9260 C.3   201  APR201      0.1813
     19  O5'       23.8800   -2.9640   -7.0110 O.3   201  APR201     -0.3112
     20  PA        24.7310   -4.0490   -7.8300 P.3   201  APR201      0.2189
     21  O1A       24.5090   -3.8980   -9.2980 O.co2 201  APR201     -0.5170
     22  O2A       24.5240   -5.4040   -7.2380 O.3   201  APR201     -0.4371
     23  O3A       26.2110   -3.5430   -7.5190 O.3   201  APR201     -0.2703
     24  PB        27.4140   -4.0830   -6.6140 P.3   201  APR201      0.2189
     25  O1B       28.6240   -3.2650   -6.9220 O.co2 201  APR201     -0.5170
     26  O2B       26.9480   -4.1870   -5.1980 O.3   201  APR201     -0.4371
     27  O5D       27.5810   -5.5550   -7.2140 O.3   201  APR201     -0.3112
     28  C5D       28.6590   -5.9270   -8.0930 C.3   201  APR201      0.1813
     29  O4D       27.0370   -7.4210   -9.0240 O.3   201  APR201     -0.3237
     30  O1D       25.9600   -7.7530  -11.0260 O.3   201  APR201     -0.1869
     31  C1D       27.0380   -8.1160  -10.2530 C.3   201  APR201      0.3023
     32  O2D       28.7600   -8.4770  -11.9980 O.3   201  APR201     -0.2148
     33  C2D       28.3650   -7.7000  -10.8910 C.3   201  APR201      0.2433
     34  O3D       29.5480   -9.2640   -9.4990 O.3   201  APR201     -0.2175
     35  C3D       29.2790   -7.8820   -9.6870 C.3   201  APR201      0.2168
     36  C4D       28.4020   -7.3450   -8.5460 C.3   201  APR201      0.1807
@<TRIPOS>UNITY_ATOM_ATTR
21 1
charge -1
25 1
charge -1
@<TRIPOS>BOND
     1     7     6    1
     2    32    33    1
     3     1     6   ar
     4     1     2   ar
     5     6     5   ar
     6    30    31    1
     7     2     3   ar
     8    33    31    1
     9    33    35    1
    10     5     8   ar
    11     5     4   ar
    12    31    29    1
    13     8     9   ar
    14     3     4   ar
    15    35    34    1
    16    35    36    1
    17     4    10   ar
    18    21    20    2
    19    29    36    1
    20     9    10   ar
    21    10    11    1
    22    36    28    1
    23    28    27    1
    24    20    23    1
    25    20    22    1
    26    20    19    1
    27    16    11    1
    28    16    17    1
    29    23    24    1
    30    11    12    1
    31    27    24    1
    32    19    18    1
    33    18    17    1
    34    25    24    2
    35    24    26    1
    36    17    14    1
    37    12    13    1
    38    12    14    1
    39    14    15    1
