LQL
  -OEChem-02242320033D

 51 54  0     1  0  0  0  0  0999 V2000
    2.7200   -0.5800    0.7340 N   0  0  0  0  0  0  0  0  0  0  0  0
    6.6480   -0.2510   -1.8600 N   0  0  0  0  0  0  0  0  0  0  0  0
   -3.0030   -6.0520    0.1240 C   0  0  0  0  0  0  0  0  0  0  0  0
   -3.5890   -5.7970   -1.0470 C   0  0  0  0  0  0  0  0  0  0  0  0
    0.3210   -0.2000    0.5330 C   0  0  1  0  0  0  0  0  0  0  0  0
    1.4040   -1.1700    1.0180 C   0  0  0  0  0  0  0  0  0  0  0  0
    2.9770    0.7970    1.1810 C   0  0  0  0  0  0  0  0  0  0  0  0
   -0.5060    1.9910    0.8420 C   0  0  0  0  0  0  0  0  0  0  0  0
   -2.5920    3.7200    0.2750 C   0  0  0  0  0  0  0  0  0  0  0  0
   -1.1510    2.6660    1.8710 C   0  0  0  0  0  0  0  0  0  0  0  0
    4.9520   -0.6430   -0.2730 C   0  0  0  0  0  0  0  0  0  0  0  0
    6.8280    0.7350    0.2700 C   0  0  0  0  0  0  0  0  0  0  0  0
    5.6310    0.1560    0.6550 C   0  0  0  0  0  0  0  0  0  0  0  0
   -1.4630   -1.9150    0.5190 N   0  0  0  0  0  0  0  0  0  0  0  0
   -1.0350   -0.7110    0.9490 C   0  0  0  0  0  0  0  0  0  0  0  0
   -1.7400   -0.0400    1.6710 O   0  0  0  0  0  0  0  0  0  0  0  0
   -2.7800   -2.4110    0.9230 C   0  0  0  0  0  0  0  0  0  0  0  0
   -0.9100    2.1850   -0.4720 C   0  0  0  0  0  0  0  0  0  0  0  0
   -1.9520    3.0490   -0.7530 C   0  0  0  0  0  0  0  0  0  0  0  0
   -2.1910    3.5280    1.5850 C   0  0  0  0  0  0  0  0  0  0  0  0
    3.6690   -1.2850    0.0850 C   0  0  0  0  0  0  0  0  0  0  0  0
    5.5060   -0.8230   -1.5410 C   0  0  0  0  0  0  0  0  0  0  0  0
    7.3100    0.5080   -1.0060 C   0  0  0  0  0  0  0  0  0  0  0  0
   -3.0150   -3.7680    0.3120 C   0  0  0  0  0  0  0  0  0  0  0  0
   -2.6880   -4.9330    0.8750 C   0  0  0  0  0  0  0  0  0  0  0  0
    1.8320    1.6900    0.6890 C   0  0  0  0  0  0  0  0  0  0  0  0
    0.5500    1.1220    1.1290 N   0  0  2  0  0  0  0  0  0  0  0  0
    3.4700   -2.4480   -0.2050 O   0  0  0  0  0  0  0  0  0  0  0  0
   -3.7660   -4.0600   -1.2520 S   0  0  0  0  0  0  0  0  0  0  0  0
   -2.4580    3.2930   -2.3960 Cl  0  0  0  0  0  0  0  0  0  0  0  0
   -3.8990    4.8060   -0.0810 Cl  0  0  0  0  0  0  0  0  0  0  0  0
   -2.7930   -7.0560    0.4620 H   0  0  0  0  0  0  0  0  0  0  0  0
   -3.9060   -6.5440   -1.7600 H   0  0  0  0  0  0  0  0  0  0  0  0
    0.3620   -0.1220   -0.5530 H   0  0  0  0  0  0  0  0  0  0  0  0
    1.3070   -2.1200    0.4920 H   0  0  0  0  0  0  0  0  0  0  0  0
    1.2980   -1.3310    2.0910 H   0  0  0  0  0  0  0  0  0  0  0  0
    3.0230    0.8260    2.2690 H   0  0  0  0  0  0  0  0  0  0  0  0
    3.9200    1.1480    0.7620 H   0  0  0  0  0  0  0  0  0  0  0  0
   -0.8390    2.5160    2.8940 H   0  0  0  0  0  0  0  0  0  0  0  0
    7.3790    1.3580    0.9590 H   0  0  0  0  0  0  0  0  0  0  0  0
    5.2310    0.3180    1.6450 H   0  0  0  0  0  0  0  0  0  0  0  0
   -0.8980   -2.4520   -0.0590 H   0  0  0  0  0  0  0  0  0  0  0  0
   -2.8210   -2.4900    2.0100 H   0  0  0  0  0  0  0  0  0  0  0  0
   -3.5500   -1.7200    0.5800 H   0  0  0  0  0  0  0  0  0  0  0  0
   -0.4100    1.6620   -1.2740 H   0  0  0  0  0  0  0  0  0  0  0  0
   -2.6920    4.0530    2.3850 H   0  0  0  0  0  0  0  0  0  0  0  0
    4.9940   -1.4370   -2.2660 H   0  0  0  0  0  0  0  0  0  0  0  0
    8.2440    0.9580   -1.3090 H   0  0  0  0  0  0  0  0  0  0  0  0
   -2.2130   -4.9970    1.8420 H   0  0  0  0  0  0  0  0  0  0  0  0
    1.9480    2.6910    1.1040 H   0  0  0  0  0  0  0  0  0  0  0  0
    1.8530    1.7420   -0.3990 H   0  0  0  0  0  0  0  0  0  0  0  0
 12 23  2  0  0  0  0
  2 23  1  0  0  0  0
 12 13  1  0  0  0  0
  2 22  2  0  0  0  0
 11 13  2  0  0  0  0
 11 22  1  0  0  0  0
 11 21  1  0  0  0  0
 21 28  2  0  0  0  0
  1 21  1  0  0  0  0
  1  6  1  0  0  0  0
  1  7  1  0  0  0  0
  5  6  1  0  0  0  0
  7 26  1  0  0  0  0
  5 15  1  0  0  0  0
  5 27  1  0  0  0  0
 26 27  1  0  0  0  0
 15 16  2  0  0  0  0
 14 15  1  0  0  0  0
  8 27  1  0  0  0  0
 14 17  1  0  0  0  0
  8 18  2  0  0  0  0
  8 10  1  0  0  0  0
 18 19  1  0  0  0  0
 17 24  1  0  0  0  0
 10 20  2  0  0  0  0
 19 30  1  0  0  0  0
  9 19  2  0  0  0  0
 24 29  1  0  0  0  0
  4 29  1  0  0  0  0
 24 25  2  0  0  0  0
  9 20  1  0  0  0  0
  9 31  1  0  0  0  0
  3 25  1  0  0  0  0
  3  4  2  0  0  0  0
  3 32  1  0  0  0  0
  4 33  1  0  0  0  0
  5 34  1  0  0  0  0
  6 35  1  0  0  0  0
  6 36  1  0  0  0  0
  7 37  1  0  0  0  0
  7 38  1  0  0  0  0
 10 39  1  0  0  0  0
 12 40  1  0  0  0  0
 13 41  1  0  0  0  0
 14 42  1  0  0  0  0
 17 43  1  0  0  0  0
 17 44  1  0  0  0  0
 18 45  1  0  0  0  0
 20 46  1  0  0  0  0
 22 47  1  0  0  0  0
 23 48  1  0  0  0  0
 25 49  1  0  0  0  0
 26 50  1  0  0  0  0
 26 51  1  0  0  0  0
M  END
> <OPENEYE_ISO_SMILES>
c1cc(cnc1)C(=O)N2CC[N@]([C@@H](C2)C(=O)NCc3cccs3)c4ccc(c(c4)Cl)Cl

> <OPENEYE_INCHI>
InChI=1S/C22H20Cl2N4O2S/c23-18-6-5-16(11-19(18)24)28-9-8-27(22(30)15-3-1-7-25-12-15)14-20(28)21(29)26-13-17-4-2-10-31-17/h1-7,10-12,20H,8-9,13-14H2,(H,26,29)/t20-/m0/s1

> <OPENEYE_INCHIKEY>
XEFYJHCPILXFKJ-FQEVSTJZSA-N

> <FORMULA>
C22H20Cl2N4O2S

$$$$
