4YG
  -OEChem-02242320013D

 80 84  0     1  0  0  0  0  0999 V2000
    8.7670    0.7660    0.3680 C   0  0  0  0  0  0  0  0  0  0  0  0
    8.7400    0.5950   -1.0090 C   0  0  0  0  0  0  0  0  0  0  0  0
    7.7170    0.3710    1.1400 C   0  0  0  0  0  0  0  0  0  0  0  0
    7.6400    0.0270   -1.6120 C   0  0  0  0  0  0  0  0  0  0  0  0
    6.5780   -0.2140    0.5510 C   0  0  0  0  0  0  0  0  0  0  0  0
    6.5540   -0.3780   -0.8380 C   0  0  0  0  0  0  0  0  0  0  0  0
    4.5470   -1.1630    0.3670 C   0  0  0  0  0  0  0  0  0  0  0  0
    3.0770    1.8010   -0.7380 C   0  0  0  0  0  0  0  0  0  0  0  0
   -0.2960   -0.9750    0.1250 C   0  0  0  0  0  0  0  0  0  0  0  0
   -3.4850    0.2410    0.5160 C   0  0  0  0  0  0  0  0  0  0  0  0
    3.5640    2.7100    1.4440 C   0  0  0  0  0  0  0  0  0  0  0  0
    2.7080    3.6710    0.5890 C   0  0  0  0  0  0  0  0  0  0  0  0
   -2.8360   -1.1990   -1.4740 C   0  0  0  0  0  0  0  0  0  0  0  0
    3.4040    1.3770    0.6770 C   0  0  1  0  0  0  0  0  0  0  0  0
   -1.6430   -1.5220    0.5240 C   0  0  2  0  0  0  0  0  0  0  0  0
   -2.6330   -2.7260   -1.3720 C   0  0  1  0  0  0  0  0  0  0  0  0
   -1.8450   -2.9360   -0.0620 C   0  0  2  0  0  0  0  0  0  0  0  0
   -3.3140   -3.4680   -0.2210 C   0  0  0  0  0  0  0  0  0  0  0  0
   -4.4170   -2.7340    0.5450 C   0  0  0  0  0  0  0  0  0  0  0  0
   -3.5050   -4.9800   -0.3630 C   0  0  0  0  0  0  0  0  0  0  0  0
   -3.6300    3.1330    0.3240 C   0  0  0  0  0  0  0  0  0  0  0  0
   -2.9610    1.9780   -1.7880 C   0  0  0  0  0  0  0  0  0  0  0  0
   -7.4720   -0.7250   -0.3380 C   0  0  0  0  0  0  0  0  0  0  0  0
    2.2570    0.5540    1.2670 C   0  0  0  0  0  0  0  0  0  0  0  0
    3.2310   -1.7100    0.8570 C   0  0  2  0  0  0  0  0  0  0  0  0
   -4.6050    0.9040   -0.2430 C   0  0  2  0  0  0  0  0  0  0  0  0
   -4.1140    2.2350   -0.8160 C   0  0  0  0  0  0  0  0  0  0  0  0
    2.1050   -0.7470    0.4770 C   0  0  1  0  0  0  0  0  0  0  0  0
    5.4480   -0.6670    1.1270 N   0  0  0  0  0  0  0  0  0  0  0  0
    2.6960    3.0900   -0.7590 N   0  0  0  0  0  0  0  0  0  0  0  0
   -2.7390   -0.7120   -0.0780 N   0  0  0  0  0  0  0  0  0  0  0  0
    0.8110   -1.3600    0.7900 N   0  0  0  0  0  0  0  0  0  0  0  0
   -5.7310    1.1470    0.6610 N   0  0  0  0  0  0  0  0  0  0  0  0
    3.1530    1.0840   -1.7130 O   0  0  0  0  0  0  0  0  0  0  0  0
   -0.2080   -0.1900   -0.7950 O   0  0  0  0  0  0  0  0  0  0  0  0
   -3.2550    0.5640    1.6630 O   0  0  0  0  0  0  0  0  0  0  0  0
   -7.3000    1.8360   -1.0670 O   0  0  0  0  0  0  0  0  0  0  0  0
   -8.0900    1.3470    1.2260 O   0  0  0  0  0  0  0  0  0  0  0  0
    3.2750   -1.8550    2.2780 O   0  0  0  0  0  0  0  0  0  0  0  0
    5.0210   -1.1270   -1.2720 S   0  0  0  0  0  0  0  0  0  0  0  0
   -7.2850    1.0250    0.1000 S   0  0  0  0  0  0  0  0  0  0  0  0
    9.6330    1.2130    0.8340 H   0  0  0  0  0  0  0  0  0  0  0  0
    9.5810    0.9090   -1.6080 H   0  0  0  0  0  0  0  0  0  0  0  0
    7.7570    0.5080    2.2110 H   0  0  0  0  0  0  0  0  0  0  0  0
    7.6200   -0.1050   -2.6840 H   0  0  0  0  0  0  0  0  0  0  0  0
    4.6060    3.0270    1.4620 H   0  0  0  0  0  0  0  0  0  0  0  0
    3.1650    2.6290    2.4560 H   0  0  0  0  0  0  0  0  0  0  0  0
    1.6940    3.7270    0.9850 H   0  0  0  0  0  0  0  0  0  0  0  0
    3.1600    4.6630    0.5700 H   0  0  0  0  0  0  0  0  0  0  0  0
   -2.0550   -0.7510   -2.0880 H   0  0  0  0  0  0  0  0  0  0  0  0
   -3.8190   -0.9730   -1.8870 H   0  0  0  0  0  0  0  0  0  0  0  0
    4.3340    0.8100    0.7000 H   0  0  0  0  0  0  0  0  0  0  0  0
   -1.7370   -1.5430    1.6090 H   0  0  0  0  0  0  0  0  0  0  0  0
   -2.3830   -3.2640   -2.2860 H   0  0  0  0  0  0  0  0  0  0  0  0
   -1.0220   -3.6450    0.0330 H   0  0  0  0  0  0  0  0  0  0  0  0
   -4.4510   -1.6940    0.2240 H   0  0  0  0  0  0  0  0  0  0  0  0
   -5.3770   -3.2090    0.3430 H   0  0  0  0  0  0  0  0  0  0  0  0
   -4.2080   -2.7780    1.6140 H   0  0  0  0  0  0  0  0  0  0  0  0
   -3.1100   -5.4810    0.5210 H   0  0  0  0  0  0  0  0  0  0  0  0
   -4.5670   -5.2040   -0.4640 H   0  0  0  0  0  0  0  0  0  0  0  0
   -2.9740   -5.3310   -1.2480 H   0  0  0  0  0  0  0  0  0  0  0  0
   -3.2800    4.0810   -0.0840 H   0  0  0  0  0  0  0  0  0  0  0  0
   -4.4510    3.3160    1.0160 H   0  0  0  0  0  0  0  0  0  0  0  0
   -2.8120    2.6410    0.8510 H   0  0  0  0  0  0  0  0  0  0  0  0
   -2.1330    1.5100   -1.2550 H   0  0  0  0  0  0  0  0  0  0  0  0
   -3.2990    1.3160   -2.5860 H   0  0  0  0  0  0  0  0  0  0  0  0
   -2.6290    2.9240   -2.2170 H   0  0  0  0  0  0  0  0  0  0  0  0
   -7.3100   -1.3400    0.5470 H   0  0  0  0  0  0  0  0  0  0  0  0
   -8.4780   -0.8980   -0.7210 H   0  0  0  0  0  0  0  0  0  0  0  0
   -6.7410   -0.9890   -1.1020 H   0  0  0  0  0  0  0  0  0  0  0  0
    2.4760    0.3220    2.3090 H   0  0  0  0  0  0  0  0  0  0  0  0
    1.3310    1.1260    1.2080 H   0  0  0  0  0  0  0  0  0  0  0  0
    3.0480   -2.6820    0.3990 H   0  0  0  0  0  0  0  0  0  0  0  0
   -4.9260    0.2540   -1.0570 H   0  0  0  0  0  0  0  0  0  0  0  0
   -4.9310    2.7270   -1.3440 H   0  0  0  0  0  0  0  0  0  0  0  0
    2.1550   -0.5320   -0.5910 H   0  0  0  0  0  0  0  0  0  0  0  0
    2.4460    3.5740   -1.5610 H   0  0  0  0  0  0  0  0  0  0  0  0
    0.7520   -2.0430    1.4770 H   0  0  0  0  0  0  0  0  0  0  0  0
   -5.5680    1.3790    1.5890 H   0  0  0  0  0  0  0  0  0  0  0  0
    3.4340   -1.0270    2.7530 H   0  0  0  0  0  0  0  0  0  0  0  0
  8 34  2  0  0  0  0
  8 30  1  0  0  0  0
  8 14  1  0  0  0  0
 12 30  1  0  0  0  0
 14 24  1  0  0  0  0
 24 28  1  0  0  0  0
 11 14  1  0  0  0  0
 25 39  1  0  0  0  0
 11 12  1  0  0  0  0
 25 28  1  0  0  0  0
  7 25  1  0  0  0  0
 28 32  1  0  0  0  0
  9 32  1  0  0  0  0
 23 41  1  0  0  0  0
 10 36  2  0  0  0  0
  7 40  1  0  0  0  0
  7 29  2  0  0  0  0
  6 40  1  0  0  0  0
  9 15  1  0  0  0  0
  9 35  2  0  0  0  0
 15 17  1  0  0  0  0
 15 31  1  0  0  0  0
 10 31  1  0  0  0  0
 10 26  1  0  0  0  0
  5 29  1  0  0  0  0
 18 19  1  0  0  0  0
 33 41  1  0  0  0  0
 26 33  1  0  0  0  0
 38 41  2  0  0  0  0
 37 41  2  0  0  0  0
 22 27  1  0  0  0  0
 17 18  1  0  0  0  0
 16 17  1  0  0  0  0
 13 31  1  0  0  0  0
 18 20  1  0  0  0  0
 16 18  1  0  0  0  0
  5  6  2  0  0  0  0
  4  6  1  0  0  0  0
 26 27  1  0  0  0  0
  3  5  1  0  0  0  0
 21 27  1  0  0  0  0
 13 16  1  0  0  0  0
  2  4  2  0  0  0  0
  1  3  2  0  0  0  0
  1  2  1  0  0  0  0
  1 42  1  0  0  0  0
  2 43  1  0  0  0  0
  3 44  1  0  0  0  0
  4 45  1  0  0  0  0
 11 46  1  0  0  0  0
 11 47  1  0  0  0  0
 12 48  1  0  0  0  0
 12 49  1  0  0  0  0
 13 50  1  0  0  0  0
 13 51  1  0  0  0  0
 14 52  1  0  0  0  0
 15 53  1  0  0  0  0
 16 54  1  0  0  0  0
 17 55  1  0  0  0  0
 19 56  1  0  0  0  0
 19 57  1  0  0  0  0
 19 58  1  0  0  0  0
 20 59  1  0  0  0  0
 20 60  1  0  0  0  0
 20 61  1  0  0  0  0
 21 62  1  0  0  0  0
 21 63  1  0  0  0  0
 21 64  1  0  0  0  0
 22 65  1  0  0  0  0
 22 66  1  0  0  0  0
 22 67  1  0  0  0  0
 23 68  1  0  0  0  0
 23 69  1  0  0  0  0
 23 70  1  0  0  0  0
 24 71  1  0  0  0  0
 24 72  1  0  0  0  0
 25 73  1  0  0  0  0
 26 74  1  0  0  0  0
 27 75  1  0  0  0  0
 28 76  1  0  0  0  0
 30 77  1  0  0  0  0
 32 78  1  0  0  0  0
 33 79  1  0  0  0  0
 39 80  1  0  0  0  0
M  END
> <OPENEYE_ISO_SMILES>
CC(C)[C@@H](C(=O)N1C[C@H]2[C@@H]([C@H]1C(=O)N[C@@H](C[C@@H]3CCNC3=O)[C@@H](c4nc5ccccc5s4)O)C2(C)C)NS(=O)(=O)C

> <OPENEYE_INCHI>
InChI=1S/C28H39N5O6S2/c1-14(2)21(32-41(5,38)39)27(37)33-13-16-20(28(16,3)4)22(33)25(36)30-18(12-15-10-11-29-24(15)35)23(34)26-31-17-8-6-7-9-19(17)40-26/h6-9,14-16,18,20-23,32,34H,10-13H2,1-5H3,(H,29,35)(H,30,36)/t15-,16-,18-,20-,21-,22-,23-/m0/s1

> <OPENEYE_INCHIKEY>
FSCAOQMZHZLHRY-DECHFVIOSA-N

> <FORMULA>
C28H39N5O6S2

$$$$
