QJO
  -OEChem-02242320033D

 30 31  0     1  0  0  0  0  0999 V2000
    2.5150    1.5030    0.7990 C   0  0  0  0  0  0  0  0  0  0  0  0
    1.7390    0.2110    0.8250 C   0  0  2  0  0  0  0  0  0  0  0  0
    2.7110   -0.9830    0.9280 C   0  0  0  0  0  0  0  0  0  0  0  0
    2.0540   -2.0460    0.0070 C   0  0  0  0  0  0  0  0  0  0  0  0
   -2.2080    0.9260    0.8860 C   0  0  0  0  0  0  0  0  0  0  0  0
   -4.0550   -0.4240    0.6350 C   0  0  0  0  0  0  0  0  0  0  0  0
   -2.4870   -0.4370   -1.0490 C   0  0  0  0  0  0  0  0  0  0  0  0
   -1.7310    0.4820   -0.3380 C   0  0  0  0  0  0  0  0  0  0  0  0
    1.4600   -1.1600   -1.1160 C   0  0  0  0  0  0  0  0  0  0  0  0
    3.0120   -2.9280   -0.5030 F   0  0  0  0  0  0  0  0  0  0  0  0
    1.0450   -2.7410    0.6830 F   0  0  0  0  0  0  0  0  0  0  0  0
   -5.2570   -0.8920    1.1380 N   0  0  0  0  0  0  0  0  0  0  0  0
   -3.6280   -0.8680   -0.5380 N   0  0  0  0  0  0  0  0  0  0  0  0
    0.9860    0.0550   -0.4280 N   0  0  3  0  0  0  0  0  0  0  0  0
   -3.3600    0.4580    1.3380 N   0  0  0  0  0  0  0  0  0  0  0  0
   -0.2570    0.9010   -2.3850 O   0  0  0  0  0  0  0  0  0  0  0  0
    2.4410    2.2330   -0.1600 O   0  0  0  0  0  0  0  0  0  0  0  0
    3.2840    1.8440    1.8450 O   0  0  0  0  0  0  0  0  0  0  0  0
    0.0350    2.3310   -0.3560 O   0  0  0  0  0  0  0  0  0  0  0  0
   -0.1990    1.0740   -0.9750 S   0  0  0  0  0  0  0  0  0  0  0  0
    1.0550    0.2070    1.6740 H   0  0  0  0  0  0  0  0  0  0  0  0
    3.6980   -0.7100    0.5580 H   0  0  0  0  0  0  0  0  0  0  0  0
    2.7690   -1.3460    1.9540 H   0  0  0  0  0  0  0  0  0  0  0  0
   -1.6430    1.6420    1.4650 H   0  0  0  0  0  0  0  0  0  0  0  0
   -2.1430   -0.8030   -2.0060 H   0  0  0  0  0  0  0  0  0  0  0  0
    2.2300   -0.9060   -1.8460 H   0  0  0  0  0  0  0  0  0  0  0  0
    0.6290   -1.6700   -1.6020 H   0  0  0  0  0  0  0  0  0  0  0  0
   -5.5800   -0.5740    1.9950 H   0  0  0  0  0  0  0  0  0  0  0  0
   -5.7750   -1.5380    0.6330 H   0  0  0  0  0  0  0  0  0  0  0  0
    3.7630    2.6820    1.7820 H   0  0  0  0  0  0  0  0  0  0  0  0
  6 12  1  0  0  0  0
  6 13  2  0  0  0  0
  7 13  1  0  0  0  0
  7  8  2  0  0  0  0
 16 20  2  0  0  0  0
  9 14  1  0  0  0  0
  4  9  1  0  0  0  0
  4 10  1  0  0  0  0
  2  3  1  0  0  0  0
  1  2  1  0  0  0  0
  1 17  2  0  0  0  0
  1 18  1  0  0  0  0
  3  4  1  0  0  0  0
  4 11  1  0  0  0  0
 14 20  1  0  0  0  0
 19 20  2  0  0  0  0
  8 20  1  0  0  0  0
  5  8  1  0  0  0  0
  5 15  2  0  0  0  0
  6 15  1  0  0  0  0
  2 14  1  0  0  0  0
  2 21  1  0  0  0  0
  3 22  1  0  0  0  0
  3 23  1  0  0  0  0
  5 24  1  0  0  0  0
  7 25  1  0  0  0  0
  9 26  1  0  0  0  0
  9 27  1  0  0  0  0
 12 28  1  0  0  0  0
 12 29  1  0  0  0  0
 18 30  1  0  0  0  0
M  END
> <OPENEYE_ISO_SMILES>
c1c(cnc(n1)N)S(=O)(=O)N2CC(C[C@H]2C(=O)O)(F)F

> <OPENEYE_INCHI>
InChI=1S/C9H10F2N4O4S/c10-9(11)1-6(7(16)17)15(4-9)20(18,19)5-2-13-8(12)14-3-5/h2-3,6H,1,4H2,(H,16,17)(H2,12,13,14)/t6-/m0/s1

> <OPENEYE_INCHIKEY>
UFHUWHHAKBBFLR-LURJTMIESA-N

> <FORMULA>
C9H10F2N4O4S

$$$$
