@<TRIPOS>MOLECULE
/home/pku/3cl/gett_pdb/5SRM/5SRM_mol2/ligand/5SRM_RBB.pdb
 44 47 0 0 0
SMALL
GASTEIGER

@<TRIPOS>ATOM
      1  C18      -46.2710  -29.7840    2.0880 C.3   201  RBB201      0.0403
      2  C16      -44.1640  -29.2030    5.9410 C.ar  201  RBB201      0.1204
      3  C14      -46.1580  -30.2920    6.4080 C.ar  201  RBB201      0.1442
      4  C12      -48.1510  -32.0510    3.9480 C.ar  201  RBB201     -0.0518
      5  C11      -49.3480  -32.7150    4.1770 C.ar  201  RBB201     -0.0611
      6  C10      -49.8910  -32.7480    5.4560 C.ar  201  RBB201     -0.0598
      7  C19      -45.9280  -29.5100    0.6350 C.3   201  RBB201      0.0809
      8  C01      -43.2350  -28.4550    2.3400 C.3   201  RBB201     -0.0346
      9  C02      -43.6250  -29.5330    1.3330 C.3   201  RBB201      0.0800
     10  C03      -44.0660  -30.7600    2.1390 C.3   201  RBB201      0.0422
     11  C05      -45.2710  -30.2720    4.1880 C.ar  201  RBB201      0.1345
     12  C06      -46.2790  -30.6690    5.0810 C.ar  201  RBB201      0.0663
     13  C07      -47.4910  -31.4130    5.0020 C.ar  201  RBB201      0.0123
     14  C08      -48.0280  -31.4460    6.2730 C.ar  201  RBB201      0.0487
     15  C09      -49.2370  -32.1160    6.5030 C.ar  201  RBB201     -0.0377
     16  C21      -46.9800  -28.5380    0.1170 C.3   201  RBB201      0.0238
     17  C22      -46.4300  -27.1350   -0.1330 C.2   201  RBB201      0.0896
     18  C25      -42.3770  -29.8970    0.5190 C.3   201  RBB201     -0.0346
     19  N04      -45.3570  -30.6400    2.7650 N.pl3 201  RBB201     -0.3094
     20  N13      -47.2100  -30.7680    7.0890 N.ar  201  RBB201     -0.3389
     21  N15      -45.0960  -29.5690    6.7940 N.ar  201  RBB201     -0.2178
     22  N17      -44.2580  -29.5520    4.6660 N.ar  201  RBB201     -0.2200
     23  O20      -44.6200  -28.9430    0.4950 O.3   201  RBB201     -0.3672
     24  O23      -45.9320  -26.8450   -1.2520 O.co2 201  RBB201     -0.8475
     25  O24      -46.4770  -26.2670    0.7780 O.co2 201  RBB201     -0.3089
     26 H182      -47.2340  -30.2720    2.1050 H     201  RBB201      0.0490
     27 H181      -46.3610  -28.8470    2.6180 H     201  RBB201      0.0490
     28 H161      -43.3140  -28.6100    6.2890 H     201  RBB201      0.1048
     29 H121      -47.7300  -32.0180    2.9520 H     201  RBB201      0.0624
     30 H111      -49.8560  -33.2060    3.3590 H     201  RBB201      0.0618
     31 H101      -50.8190  -33.2710    5.6370 H     201  RBB201      0.0618
     32 H191      -46.0010  -30.4290    0.0710 H     201  RBB201      0.0616
     33 H013      -42.7560  -27.6450    1.8250 H     201  RBB201      0.0258
     34 H012      -42.5500  -28.8600    3.0810 H     201  RBB201      0.0258
     35 H011      -44.1380  -28.0760    2.8260 H     201  RBB201      0.0258
     36 H032      -43.3380  -30.8790    2.9240 H     201  RBB201      0.0492
     37 H031      -44.0260  -31.6630    1.5200 H     201  RBB201      0.0492
     38 H091      -49.6530  -32.1510    7.4990 H     201  RBB201      0.0638
     39 H212      -47.3960  -28.9190   -0.8070 H     201  RBB201      0.0358
     40 H211      -47.7760  -28.4850    0.8530 H     201  RBB201      0.0358
     41 H252      -42.5420  -30.8250   -0.0150 H     201  RBB201      0.0258
     42 H251      -41.5210  -30.0160    1.1880 H     201  RBB201      0.0258
     43 H253      -42.1610  -29.1050   -0.1930 H     201  RBB201      0.0258
     44 H131      -47.3610  -30.6370    8.0710 H     201  RBB201      0.1673
@<TRIPOS>UNITY_ATOM_ATTR
24 1
charge -1
@<TRIPOS>BOND
     1    24    17   ar
     2    39    16    1
     3    43    18    1
     4    17    16    1
     5    17    25   ar
     6    41    18    1
     7    32     7    1
     8    16     7    1
     9    16    40    1
    10    23     7    1
    11    23     9    1
    12    18    42    1
    13    18     9    1
    14     7     1    1
    15     9    10    1
    16     9     8    1
    17    37    10    1
    18    33     8    1
    19     1    26    1
    20     1    27    1
    21     1    19    1
    22    10    19    1
    23    10    36    1
    24     8    35    1
    25     8    34    1
    26    19    11    1
    27    29     4    1
    28    30     5    1
    29     4     5   ar
    30     4    13   ar
    31     5     6   ar
    32    11    22   ar
    33    11    12   ar
    34    22     2   ar
    35    13    12   ar
    36    13    14   ar
    37    12     3   ar
    38     6    31    1
    39     6    15   ar
    40     2    28    1
    41     2    21   ar
    42    14    15   ar
    43    14    20   ar
    44     3    21   ar
    45     3    20   ar
    46    15    38    1
    47    20    44    1
