5ZT
  -OEChem-02242320013D

 42 44  0     0  0  0  0  0  0999 V2000
    2.7770    1.5780   -0.3010 C   0  0  0  0  0  0  0  0  0  0  0  0
   -0.2170   -0.1240    0.5450 C   0  0  0  0  0  0  0  0  0  0  0  0
    1.1840    0.2690    1.0270 C   0  0  0  0  0  0  0  0  0  0  0  0
   -1.1280    1.0160    0.7170 N   0  0  0  0  0  0  0  0  0  0  0  0
   -0.7170    2.1560   -0.1130 C   0  0  0  0  0  0  0  0  0  0  0  0
    3.7640    0.4760   -0.1650 C   0  0  0  0  0  0  0  0  0  0  0  0
   -2.4470    0.6480    0.4430 C   0  0  0  0  0  0  0  0  0  0  0  0
   -3.4670    1.5850    0.5470 C   0  0  0  0  0  0  0  0  0  0  0  0
   -4.7710    1.2180    0.2750 C   0  0  0  0  0  0  0  0  0  0  0  0
   -5.0620   -0.0800   -0.1000 C   0  0  0  0  0  0  0  0  0  0  0  0
   -4.0480   -1.0170   -0.2050 C   0  0  0  0  0  0  0  0  0  0  0  0
   -2.7410   -0.6550    0.0600 C   0  0  0  0  0  0  0  0  0  0  0  0
    4.4300   -1.5110    0.8200 C   0  0  0  0  0  0  0  0  0  0  0  0
    5.9700   -0.7140   -0.7600 C   0  0  0  0  0  0  0  0  0  0  0  0
    5.0360    0.4600   -0.9910 C   0  0  0  0  0  0  0  0  0  0  0  0
   -6.4850   -0.4760   -0.3960 C   0  0  0  0  0  0  0  0  0  0  0  0
    0.6640    2.6430    0.3420 C   0  0  0  0  0  0  0  0  0  0  0  0
    3.5660   -0.5020    0.6690 N   0  0  0  0  0  0  0  0  0  0  0  0
    5.5810   -1.6380    0.1470 N   0  0  0  0  0  0  0  0  0  0  0  0
    1.5890    1.5000    0.3310 N   0  0  0  0  0  0  0  0  0  0  0  0
    4.1510   -2.3750    1.6270 O   0  0  0  0  0  0  0  0  0  0  0  0
    7.0130   -0.8220   -1.3680 O   0  0  0  0  0  0  0  0  0  0  0  0
   -7.3410    0.6540   -0.2190 O   0  0  0  0  0  0  0  0  0  0  0  0
    3.0430    2.5510   -0.9760 O   0  0  0  0  0  0  0  0  0  0  0  0
   -4.4180   -2.6460   -0.6760 Cl  0  0  0  0  0  0  0  0  0  0  0  0
   -0.1750   -0.4010   -0.5080 H   0  0  0  0  0  0  0  0  0  0  0  0
   -0.5790   -0.9700    1.1300 H   0  0  0  0  0  0  0  0  0  0  0  0
    1.1650    0.4470    2.1020 H   0  0  0  0  0  0  0  0  0  0  0  0
    1.8870   -0.5320    0.8000 H   0  0  0  0  0  0  0  0  0  0  0  0
   -0.6680    1.8480   -1.1570 H   0  0  0  0  0  0  0  0  0  0  0  0
   -1.4410    2.9640   -0.0050 H   0  0  0  0  0  0  0  0  0  0  0  0
   -3.2410    2.5990    0.8410 H   0  0  0  0  0  0  0  0  0  0  0  0
   -5.5640    1.9470    0.3560 H   0  0  0  0  0  0  0  0  0  0  0  0
   -1.9500   -1.3860   -0.0220 H   0  0  0  0  0  0  0  0  0  0  0  0
    4.7560    0.4700   -2.0440 H   0  0  0  0  0  0  0  0  0  0  0  0
    5.5860    1.3780   -0.7830 H   0  0  0  0  0  0  0  0  0  0  0  0
   -6.5580   -0.8300   -1.4240 H   0  0  0  0  0  0  0  0  0  0  0  0
   -6.7900   -1.2720    0.2840 H   0  0  0  0  0  0  0  0  0  0  0  0
    1.0240    3.4120   -0.3410 H   0  0  0  0  0  0  0  0  0  0  0  0
    0.5940    3.0520    1.3500 H   0  0  0  0  0  0  0  0  0  0  0  0
    6.1520   -2.4030    0.3210 H   0  0  0  0  0  0  0  0  0  0  0  0
   -8.2750    0.4720   -0.3930 H   0  0  0  0  0  0  0  0  0  0  0  0
 14 22  2  0  0  0  0
 14 15  1  0  0  0  0
 14 19  1  0  0  0  0
  6 15  1  0  0  0  0
 13 19  1  0  0  0  0
  6 18  2  0  0  0  0
  1  6  1  0  0  0  0
 13 18  1  0  0  0  0
 13 21  2  0  0  0  0
 11 25  1  0  0  0  0
  1 24  2  0  0  0  0
  1 20  1  0  0  0  0
  2  3  1  0  0  0  0
  2  4  1  0  0  0  0
 11 12  2  0  0  0  0
  7 12  1  0  0  0  0
 10 11  1  0  0  0  0
  3 20  1  0  0  0  0
 17 20  1  0  0  0  0
  4  5  1  0  0  0  0
  5 17  1  0  0  0  0
  4  7  1  0  0  0  0
  7  8  2  0  0  0  0
 10 16  1  0  0  0  0
  9 10  2  0  0  0  0
 16 23  1  0  0  0  0
  8  9  1  0  0  0  0
  2 26  1  0  0  0  0
  2 27  1  0  0  0  0
  3 28  1  0  0  0  0
  3 29  1  0  0  0  0
  5 30  1  0  0  0  0
  5 31  1  0  0  0  0
  8 32  1  0  0  0  0
  9 33  1  0  0  0  0
 12 34  1  0  0  0  0
 15 35  1  0  0  0  0
 15 36  1  0  0  0  0
 16 37  1  0  0  0  0
 16 38  1  0  0  0  0
 17 39  1  0  0  0  0
 17 40  1  0  0  0  0
 19 41  1  0  0  0  0
 23 42  1  0  0  0  0
M  END
> <OPENEYE_ISO_SMILES>
c1cc(c(cc1N2CCN(CC2)C(=O)C3=NC(=O)NC(=O)C3)Cl)CO

> <OPENEYE_INCHI>
InChI=1S/C16H17ClN4O4/c17-12-7-11(2-1-10(12)9-22)20-3-5-21(6-4-20)15(24)13-8-14(23)19-16(25)18-13/h1-2,7,22H,3-6,8-9H2,(H,19,23,25)

> <OPENEYE_INCHIKEY>
LOQJVSKMCQMDKR-UHFFFAOYSA-N

> <FORMULA>
C16H17ClN4O4

$$$$
