@<TRIPOS>MOLECULE
/home/pku/3cl/gett_pdb/8ACD/8ACD_mol2/ligand/8ACD_LQ6.pdb
 52 55 0 0 0
SMALL
GASTEIGER

@<TRIPOS>ATOM
      1  N1        11.5030    1.5640   19.6250 N.am  401  LQ6401     -0.2926
      2  N3        11.8030   -0.1840   16.9940 N.ar  401  LQ6401     -0.3034
      3  C4         9.9060    2.0140   23.5120 C.ar  401  LQ6401      0.0319
      4  C5        11.1420    2.9140   21.6130 C.3   401  LQ6401      0.0288
      5  C6        12.1200    2.5220   20.5340 C.3   401  LQ6401      0.0308
      6  C7        11.0620    0.3630   20.3310 C.3   401  LQ6401      0.0421
      7  C8        10.0820    0.7280   21.4430 C.3   401  LQ6401      0.1157
      8  C10       10.1130   -2.1000   23.9820 C.3   401  LQ6401      0.0431
      9  C13        8.7600   -0.6530   27.2260 C.ar  401  LQ6401     -0.0544
     10  C15       11.3730    1.7960   18.3130 C.2   401  LQ6401      0.2633
     11  C17       11.4690   -1.2340   16.1840 C.ar  401  LQ6401      0.3273
     12  C20        8.5290    1.7550   23.5710 C.ar  401  LQ6401     -0.0209
     13  N         10.6500    1.7360   22.3470 N.pl3 401  LQ6401     -0.3156
     14  C          7.8210    2.0390   24.7280 C.ar  401  LQ6401      0.0610
     15  O          8.7900   -1.2760   21.6570 O.2   401  LQ6401     -0.2737
     16  C1         8.4750    2.5690   25.8290 C.ar  401  LQ6401      0.0594
     17  C11        9.3430   -1.5730   25.1490 C.ar  401  LQ6401      0.0069
     18  C12        9.8340   -1.0340   26.3660 C.ar  401  LQ6401     -0.0500
     19  C14        7.5480   -0.8930   26.6720 C.ar  401  LQ6401     -0.0240
     20  C16       10.8720    0.7200   17.4410 C.ar  401  LQ6401      0.1109
     21  C18        9.5630    0.6050   17.1010 C.ar  401  LQ6401      0.0314
     22  C19        9.1460   -0.4600   16.2580 C.ar  401  LQ6401      0.2547
     23  C2         9.8290    2.8380   25.7710 C.ar  401  LQ6401     -0.0402
     24  C3        10.5420    2.5640   24.6180 C.ar  401  LQ6401     -0.0392
     25  C9         9.7200   -0.6040   22.1010 C.2   401  LQ6401      0.2353
     26  N2        10.4920   -0.9990   23.1210 N.am  401  LQ6401     -0.3091
     27  N4        10.1470   -1.3200   15.8380 N.ar  401  LQ6401     -0.2751
     28  O1        12.2950   -2.0670   15.8220 O.2   401  LQ6401     -0.2467
     29  O2         7.9860   -0.6740   15.9060 O.2   401  LQ6401     -0.2677
     30  O3        11.6610    2.8770   17.8150 O.2   401  LQ6401     -0.2684
     31  S          7.6420   -1.5810   25.1120 S.2   401  LQ6401     -0.1000
     32 CL          6.1050    1.7540   24.7630 Cl    401  LQ6401     -0.0820
     33 CL1         7.6220    2.8670   27.3080 Cl    401  LQ6401     -0.0820
     34  H15       12.7750   -0.0830   17.2660 H     401  LQ6401      0.1705
     35  H3        10.3200    3.4750   21.1710 H     401  LQ6401      0.0479
     36  H4        11.6130    3.6290   22.2870 H     401  LQ6401      0.0479
     37  H6        12.4550    3.3930   19.9720 H     401  LQ6401      0.0480
     38  H5        13.0240    2.0900   20.9610 H     401  LQ6401      0.0480
     39  H7        11.9090   -0.1830   20.7440 H     401  LQ6401      0.0488
     40  H8        10.6020   -0.3480   19.6460 H     401  LQ6401      0.0488
     41  H          9.1980    1.2210   21.0390 H     401  LQ6401      0.0612
     42  H11       10.9810   -2.6460   24.3490 H     401  LQ6401      0.0517
     43  H10        9.5030   -2.8340   23.4580 H     401  LQ6401      0.0517
     44  H13        8.9230   -0.2200   28.2120 H     401  LQ6401      0.0623
     45  H18        7.9910    1.3320   22.7240 H     401  LQ6401      0.0651
     46  H12       10.8770   -0.9070   26.6510 H     401  LQ6401      0.0626
     47  H14        6.5810   -0.6880   27.1310 H     401  LQ6401      0.0693
     48  H17        8.8080    1.3050   17.4540 H     401  LQ6401      0.0694
     49  H1        10.3240    3.2660   26.6410 H     401  LQ6401      0.0633
     50  H2        11.6050    2.8000   24.6320 H     401  LQ6401      0.0636
     51  H9        11.3750   -0.5460   23.3360 H     401  LQ6401      0.1491
     52  H16        9.8930   -2.0840   15.2200 H     401  LQ6401      0.1734
@<TRIPOS>BOND
     1    52    27    1
     2    28    11    2
     3    27    11   ar
     4    27    22   ar
     5    29    22    2
     6    11     2   ar
     7    22    21   ar
     8     2    34    1
     9     2    20   ar
    10    21    20   ar
    11    21    48    1
    12    20    10    1
    13    30    10    2
    14    10     1   am
    15     1     6    1
    16     1     5    1
    17    40     6    1
    18    37     5    1
    19     6    39    1
    20     6     7    1
    21     5    38    1
    22     5     4    1
    23    41     7    1
    24    35     4    1
    25     7    25    1
    26     7    13    1
    27     4    36    1
    28     4    13    1
    29    15    25    2
    30    25    26   am
    31    13     3    1
    32    45    12    1
    33    26    51    1
    34    26     8    1
    35    43     8    1
    36     3    12   ar
    37     3    24   ar
    38    12    14   ar
    39     8    42    1
    40     8    17    1
    41    24    50    1
    42    24    23   ar
    43    14    32    1
    44    14    16   ar
    45    31    17   ar
    46    31    19   ar
    47    17    18   ar
    48    23    16   ar
    49    23    49    1
    50    16    33    1
    51    18    46    1
    52    18     9   ar
    53    19    47    1
    54    19     9   ar
    55     9    44    1
