RGF
  -OEChem-02242320043D

 42 46  0     1  0  0  0  0  0999 V2000
   -0.4500    3.4640    0.3840 C   0  0  0  0  0  0  0  0  0  0  0  0
   -2.3330    2.1500    0.2010 C   0  0  0  0  0  0  0  0  0  0  0  0
   -2.1800   -1.5090   -0.2040 C   0  0  0  0  0  0  0  0  0  0  0  0
   -3.2540   -2.3650   -0.3170 C   0  0  0  0  0  0  0  0  0  0  0  0
   -4.5500   -1.8700   -0.2770 C   0  0  0  0  0  0  0  0  0  0  0  0
   -4.7790   -0.5170   -0.1240 C   0  0  0  0  0  0  0  0  0  0  0  0
    1.6180    0.0160    1.2310 C   0  0  0  0  0  0  0  0  0  0  0  0
    4.1610   -0.0290   -1.1970 C   0  0  0  0  0  0  0  0  0  0  0  0
    2.8600   -0.6600   -0.7710 C   0  0  2  0  0  0  0  0  0  0  0  0
    1.6740    0.2740   -1.1040 C   0  0  0  0  0  0  0  0  0  0  0  0
   -0.1180    1.1960    0.1350 C   0  0  0  0  0  0  0  0  0  0  0  0
   -1.5070    1.0200    0.0970 C   0  0  0  0  0  0  0  0  0  0  0  0
   -2.3980   -0.1410   -0.0490 C   0  0  0  0  0  0  0  0  0  0  0  0
   -3.7080    0.3610   -0.0080 C   0  0  0  0  0  0  0  0  0  0  0  0
    2.8150   -0.8160    0.7530 C   0  0  0  0  0  0  0  0  0  0  0  0
    2.8680   -2.2530    1.2720 C   0  0  0  0  0  0  0  0  0  0  0  0
    4.3940   -2.0700    1.3670 C   0  0  0  0  0  0  0  0  0  0  0  0
    4.1320   -0.5580    1.4840 C   0  0  0  0  0  0  0  0  0  0  0  0
   -5.5960   -2.7190   -0.3890 F   0  0  0  0  0  0  0  0  0  0  0  0
    0.7350    0.1110    0.0360 N   0  0  2  0  0  0  0  0  0  0  0  0
   -3.6410    1.7380    0.1280 N   0  0  0  0  0  0  0  0  0  0  0  0
   -1.7600    3.3450    0.3420 N   0  0  0  0  0  0  0  0  0  0  0  0
    0.3610    2.4280    0.2840 N   0  0  0  0  0  0  0  0  0  0  0  0
    5.1900   -0.8030   -1.5750 O   0  0  0  0  0  0  0  0  0  0  0  0
    4.2770    1.1740   -1.1970 O   0  0  0  0  0  0  0  0  0  0  0  0
   -0.0220    4.4490    0.4990 H   0  0  0  0  0  0  0  0  0  0  0  0
   -1.1730   -1.8960   -0.2350 H   0  0  0  0  0  0  0  0  0  0  0  0
   -3.0860   -3.4250   -0.4370 H   0  0  0  0  0  0  0  0  0  0  0  0
   -5.7910   -0.1410   -0.0950 H   0  0  0  0  0  0  0  0  0  0  0  0
    1.1020   -0.4910    2.0460 H   0  0  0  0  0  0  0  0  0  0  0  0
    1.9420    1.0090    1.5440 H   0  0  0  0  0  0  0  0  0  0  0  0
    2.7320   -1.6280   -1.2570 H   0  0  0  0  0  0  0  0  0  0  0  0
    2.0120    1.3080   -1.1730 H   0  0  0  0  0  0  0  0  0  0  0  0
    1.1970   -0.0340   -2.0350 H   0  0  0  0  0  0  0  0  0  0  0  0
    2.3830   -2.3860    2.2390 H   0  0  0  0  0  0  0  0  0  0  0  0
    2.5610   -2.9950    0.5360 H   0  0  0  0  0  0  0  0  0  0  0  0
    4.8310   -2.5080    2.2640 H   0  0  0  0  0  0  0  0  0  0  0  0
    4.9240   -2.3520    0.4570 H   0  0  0  0  0  0  0  0  0  0  0  0
    4.8340    0.0530    0.9170 H   0  0  0  0  0  0  0  0  0  0  0  0
    4.0030   -0.2140    2.5100 H   0  0  0  0  0  0  0  0  0  0  0  0
   -4.4110    2.3280    0.1750 H   0  0  0  0  0  0  0  0  0  0  0  0
    6.0040   -0.3520   -1.8390 H   0  0  0  0  0  0  0  0  0  0  0  0
  8 25  2  0  0  0  0
  8 24  1  0  0  0  0
  8  9  1  0  0  0  0
 16 17  1  0  0  0  0
 15 16  1  0  0  0  0
 17 18  1  0  0  0  0
  9 15  1  0  0  0  0
  9 10  1  0  0  0  0
 15 18  1  0  0  0  0
  7 15  1  0  0  0  0
 10 20  1  0  0  0  0
  7 20  1  0  0  0  0
 11 20  1  0  0  0  0
  3  4  2  0  0  0  0
  3 13  1  0  0  0  0
  4  5  1  0  0  0  0
 11 12  2  0  0  0  0
 11 23  1  0  0  0  0
 12 13  1  0  0  0  0
 13 14  2  0  0  0  0
  2 12  1  0  0  0  0
  1 23  2  0  0  0  0
  5 19  1  0  0  0  0
  5  6  2  0  0  0  0
  6 14  1  0  0  0  0
 14 21  1  0  0  0  0
  1 22  1  0  0  0  0
  2 21  1  0  0  0  0
  2 22  2  0  0  0  0
  1 26  1  0  0  0  0
  3 27  1  0  0  0  0
  4 28  1  0  0  0  0
  6 29  1  0  0  0  0
  7 30  1  0  0  0  0
  7 31  1  0  0  0  0
  9 32  1  0  0  0  0
 10 33  1  0  0  0  0
 10 34  1  0  0  0  0
 16 35  1  0  0  0  0
 16 36  1  0  0  0  0
 17 37  1  0  0  0  0
 17 38  1  0  0  0  0
 18 39  1  0  0  0  0
 18 40  1  0  0  0  0
 21 41  1  0  0  0  0
 24 42  1  0  0  0  0
M  END
> <OPENEYE_ISO_SMILES>
c1cc2c(cc1F)[nH]c3c2c(ncn3)[N@]4C[C@H](C5(C4)CCC5)C(=O)O

> <OPENEYE_INCHI>
InChI=1S/C18H17FN4O2/c19-10-2-3-11-13(6-10)22-15-14(11)16(21-9-20-15)23-7-12(17(24)25)18(8-23)4-1-5-18/h2-3,6,9,12H,1,4-5,7-8H2,(H,24,25)(H,20,21,22)/t12-/m0/s1

> <OPENEYE_INCHIKEY>
RJMONMRVOQBIPJ-LBPRGKRZSA-N

> <FORMULA>
C18H17FN4O2

$$$$
