SFG
  -OEChem-02242320043D

 50 52  0     1  0  0  0  0  0999 V2000
    6.7560    0.3960    0.7880 N   0  0  0  0  0  0  0  0  0  0  0  0
    5.9560   -0.8190    0.5840 C   0  0  2  0  0  0  0  0  0  0  0  0
    6.7800   -1.8460   -0.1510 C   0  0  0  0  0  0  0  0  0  0  0  0
    7.7510   -1.5020   -0.7820 O   0  0  0  0  0  0  0  0  0  0  0  0
    6.4340   -3.1420   -0.1040 O   0  0  0  0  0  0  0  0  0  0  0  0
    4.7130   -0.4780   -0.2400 C   0  0  0  0  0  0  0  0  0  0  0  0
    3.8150    0.4680    0.5590 C   0  0  0  0  0  0  0  0  0  0  0  0
    2.5720    0.8090   -0.2650 C   0  0  2  0  0  0  0  0  0  0  0  0
    2.9690    1.5670   -1.4600 N   0  0  0  0  0  0  0  0  0  0  0  0
    1.6160    1.6540    0.5790 C   0  0  0  0  0  0  0  0  0  0  0  0
    0.3200    1.8900   -0.1990 C   0  0  1  0  0  0  0  0  0  0  0  0
   -0.3790    0.6460   -0.3740 O   0  0  0  0  0  0  0  0  0  0  0  0
   -0.6070    2.8290    0.5980 C   0  0  1  0  0  0  0  0  0  0  0  0
   -0.8820    4.0140   -0.1510 O   0  0  0  0  0  0  0  0  0  0  0  0
   -1.9000    2.0030    0.7990 C   0  0  1  0  0  0  0  0  0  0  0  0
   -3.0590    2.8200    0.6220 O   0  0  0  0  0  0  0  0  0  0  0  0
   -1.7900    0.9460   -0.3300 C   0  0  2  0  0  0  0  0  0  0  0  0
   -2.5620   -0.2520    0.0090 N   0  0  0  0  0  0  0  0  0  0  0  0
   -2.1000   -1.3470    0.6760 C   0  0  0  0  0  0  0  0  0  0  0  0
   -3.0530   -2.2240    0.8040 N   0  0  0  0  0  0  0  0  0  0  0  0
   -4.1840   -1.7490    0.2290 C   0  0  0  0  0  0  0  0  0  0  0  0
   -5.4900   -2.2400    0.0640 C   0  0  0  0  0  0  0  0  0  0  0  0
   -5.8460   -3.4850    0.5520 N   0  0  0  0  0  0  0  0  0  0  0  0
   -6.3760   -1.4810   -0.5720 N   0  0  0  0  0  0  0  0  0  0  0  0
   -6.0460   -0.2920   -1.0420 C   0  0  0  0  0  0  0  0  0  0  0  0
   -4.8350    0.2080   -0.9110 N   0  0  0  0  0  0  0  0  0  0  0  0
   -3.8840   -0.4760   -0.2830 C   0  0  0  0  0  0  0  0  0  0  0  0
    7.0500    0.7870   -0.0940 H   0  0  0  0  0  0  0  0  0  0  0  0
    6.2490    1.0750    1.3350 H   0  0  0  0  0  0  0  0  0  0  0  0
    5.6520   -1.2210    1.5500 H   0  0  0  0  0  0  0  0  0  0  0  0
    6.9920   -3.7630   -0.5900 H   0  0  0  0  0  0  0  0  0  0  0  0
    5.0140    0.0050   -1.1700 H   0  0  0  0  0  0  0  0  0  0  0  0
    4.1650   -1.3930   -0.4680 H   0  0  0  0  0  0  0  0  0  0  0  0
    3.5130   -0.0150    1.4880 H   0  0  0  0  0  0  0  0  0  0  0  0
    4.3630    1.3830    0.7860 H   0  0  0  0  0  0  0  0  0  0  0  0
    2.0730   -0.1110   -0.5680 H   0  0  0  0  0  0  0  0  0  0  0  0
    2.1740    1.7480   -2.0540 H   0  0  0  0  0  0  0  0  0  0  0  0
    3.4340    2.4250   -1.2060 H   0  0  0  0  0  0  0  0  0  0  0  0
    1.3910    1.1290    1.5080 H   0  0  0  0  0  0  0  0  0  0  0  0
    2.0820    2.6120    0.8070 H   0  0  0  0  0  0  0  0  0  0  0  0
    0.5470    2.3280   -1.1720 H   0  0  0  0  0  0  0  0  0  0  0  0
   -0.1590    3.0810    1.5590 H   0  0  0  0  0  0  0  0  0  0  0  0
   -1.4610    4.6410    0.3030 H   0  0  0  0  0  0  0  0  0  0  0  0
   -1.9090    1.5260    1.7790 H   0  0  0  0  0  0  0  0  0  0  0  0
   -3.1250    3.5510    1.2510 H   0  0  0  0  0  0  0  0  0  0  0  0
   -2.1240    1.3640   -1.2800 H   0  0  0  0  0  0  0  0  0  0  0  0
   -1.0920   -1.4690    1.0440 H   0  0  0  0  0  0  0  0  0  0  0  0
   -5.1900   -4.0300    1.0150 H   0  0  0  0  0  0  0  0  0  0  0  0
   -6.7510   -3.8130    0.4320 H   0  0  0  0  0  0  0  0  0  0  0  0
   -6.7970    0.2930   -1.5530 H   0  0  0  0  0  0  0  0  0  0  0  0
  1  2  1  0  0  0  0
  1 28  1  0  0  0  0
  1 29  1  0  0  0  0
  2  3  1  0  0  0  0
  2  6  1  0  0  0  0
  2 30  1  0  0  0  0
  3  4  2  0  0  0  0
  3  5  1  0  0  0  0
  5 31  1  0  0  0  0
  6  7  1  0  0  0  0
  6 32  1  0  0  0  0
  6 33  1  0  0  0  0
  7  8  1  0  0  0  0
  7 34  1  0  0  0  0
  7 35  1  0  0  0  0
  8  9  1  0  0  0  0
  8 10  1  0  0  0  0
  8 36  1  0  0  0  0
  9 37  1  0  0  0  0
  9 38  1  0  0  0  0
 10 11  1  0  0  0  0
 10 39  1  0  0  0  0
 10 40  1  0  0  0  0
 11 12  1  0  0  0  0
 11 13  1  0  0  0  0
 11 41  1  0  0  0  0
 12 17  1  0  0  0  0
 13 14  1  0  0  0  0
 13 15  1  0  0  0  0
 13 42  1  0  0  0  0
 14 43  1  0  0  0  0
 15 16  1  0  0  0  0
 15 17  1  0  0  0  0
 15 44  1  0  0  0  0
 16 45  1  0  0  0  0
 17 18  1  0  0  0  0
 17 46  1  0  0  0  0
 18 19  1  0  0  0  0
 18 27  1  0  0  0  0
 19 20  2  0  0  0  0
 19 47  1  0  0  0  0
 20 21  1  0  0  0  0
 21 22  1  0  0  0  0
 21 27  2  0  0  0  0
 22 23  1  0  0  0  0
 22 24  2  0  0  0  0
 23 48  1  0  0  0  0
 23 49  1  0  0  0  0
 24 25  1  0  0  0  0
 25 26  2  0  0  0  0
 25 50  1  0  0  0  0
 26 27  1  0  0  0  0
M  END
> <OPENEYE_ISO_SMILES>
c1nc(c2c(n1)n(cn2)[C@H]3[C@@H]([C@@H]([C@H](O3)C[C@H](CC[C@@H](C(=O)O)N)N)O)O)N

> <OPENEYE_INCHI>
InChI=1S/C15H23N7O5/c16-6(1-2-7(17)15(25)26)3-8-10(23)11(24)14(27-8)22-5-21-9-12(18)19-4-20-13(9)22/h4-8,10-11,14,23-24H,1-3,16-17H2,(H,25,26)(H2,18,19,20)/t6-,7-,8+,10+,11+,14+/m0/s1

> <OPENEYE_INCHIKEY>
LMXOHSDXUQEUSF-YECHIGJVSA-N

> <FORMULA>
C15H23N7O5

$$$$
