@<TRIPOS>MOLECULE
/home/pku/3cl/gett_pdb/7LKV/7LKV_mol2/ligand/7LKV_Y4J.pdb
 32 34 0 0 0
SMALL
GASTEIGER

@<TRIPOS>ATOM
      1  N11       10.1470   20.3440   27.4630 N.am  401  Y4J401     -0.2030
      2  C12       10.5650   21.6160   27.8910 C.2   401  Y4J401      0.2614
      3  C14       13.0410   21.9450   28.3880 C.3   401  Y4J401      0.0312
      4  N18       11.7950   23.5970   27.0320 N.am  401  Y4J401     -0.1611
      5  C19       10.8290   24.0220   26.1400 C.2   401  Y4J401      0.4215
      6  C21        9.3370   25.7670   25.4200 C.3   401  Y4J401      0.2101
      7  C22        8.1500   26.2330   26.3270 C.3   401  Y4J401      0.0442
      8  C23        6.8460   26.5300   25.5150 C.3   401  Y4J401      0.0041
      9  C24        6.7280   27.9110   24.8670 C.3   401  Y4J401      0.0048
     10  C25        6.8720   29.0090   25.9080 C.3   401  Y4J401      0.0047
     11  C26        8.2500   28.8660   26.5410 C.3   401  Y4J401      0.0218
     12  C27        8.4660   27.4810   27.1830 C.3   401  Y4J401      0.0080
     13  C02        6.5870   20.9880   24.8760 C.2   401  Y4J401      0.2410
     14  C04        5.6490   22.7090   26.2620 C.3   401  Y4J401      0.1156
     15  C05        6.6710   21.9240   27.1060 C.3   401  Y4J401      0.0326
     16  C06        7.4760   21.0530   26.1250 C.3   401  Y4J401      0.0818
     17  C07        7.8270   19.6910   26.7220 C.3   401  Y4J401      0.0335
     18  C08        8.8540   19.7710   27.9140 C.3   401  Y4J401      0.1287
     19  C09        9.1130   18.3600   28.4560 C.3   401  Y4J401      0.2036
     20  C13       11.9270   22.1750   27.3590 C.3   401  Y4J401      0.1761
     21  C15       14.4020   22.4780   27.9710 C.3   401  Y4J401      0.0022
     22  C16       15.4570   22.1740   29.0350 C.3   401  Y4J401      0.0001
     23  C17       14.8840   21.9060   26.6620 C.3   401  Y4J401      0.0001
     24  C28        9.2390   29.1330   25.4470 C.2   401  Y4J401     -0.0310
     25  C29        8.9380   28.9030   24.1770 C.2   401  Y4J401     -0.0307
     26  C30        7.7610   28.0980   23.7390 C.3   401  Y4J401      0.0257
     27  N03        5.5760   21.9460   25.0290 N.am  401  Y4J401     -0.2054
     28  O01        6.6940   20.2690   23.9220 O.2   401  Y4J401     -0.2734
     29  O10        9.9420   18.5450   29.5850 O.3   401  Y4J401     -0.2185
     30  O20       10.5630   25.3950   26.0530 O.3   401  Y4J401     -0.4335
     31  O31       10.1930   23.2470   25.4480 O.2   401  Y4J401     -0.2246
     32  O32        9.8670   22.2830   28.6100 O.2   401  Y4J401     -0.2715
@<TRIPOS>BOND
     1    26    25    1
     2    26     9    1
     3    28    13    2
     4    25    24    2
     5     9     8    1
     6     9    10    1
     7    13    27   am
     8    13    16    1
     9    27    14    1
    10     6    30    1
    11     6     7    1
    12    24    11    1
    13    31     5    2
    14     8     7    1
    15    10    11    1
    16    30     5    1
    17    16    17    1
    18    16    15    1
    19     5     4   am
    20    14    15    1
    21     7    12    1
    22    11    12    1
    23    23    21    1
    24    17    18    1
    25     4    20    1
    26    20     2    1
    27    20     3    1
    28     1     2   am
    29     1    18    1
    30     2    32    2
    31    18    19    1
    32    21     3    1
    33    21    22    1
    34    19    29    1
