@<TRIPOS>MOLECULE
/home/pku/3cl/gett_pdb/7CA8/7CA8_mol2/ligand/7CA8_FNO.pdb
 21 22 0 0 0
SMALL
GASTEIGER

@<TRIPOS>ATOM
      1  C10      -22.6230   -3.1760  -29.3310 C.2   301  FNO301      0.1974
      2  C13      -22.5050   -0.5330  -29.9090 C.2   301  FNO301      0.1988
      3  C15      -22.5090   -2.6520  -26.9730 C.ar  301  FNO301      0.1990
      4  C17      -20.1220   -4.3620  -33.7280 C.2   301  FNO301     -0.0478
      5  C20      -20.1490   -2.8530  -33.5430 C.3   301  FNO301      0.0260
      6  C21      -19.3770   -4.9370  -34.9180 C.3   301  FNO301      0.0260
      7  C06      -22.7060   -3.7510  -31.7990 C.3   301  FNO301      0.1817
      8  C07      -22.6470   -2.7600  -30.6550 C.2   301  FNO301      0.0503
      9  C08      -21.5850   -4.7490  -31.5330 C.3   301  FNO301      0.0629
     10  C09      -22.5410   -2.2620  -28.2980 C.ar  301  FNO301      0.0838
     11  C11      -22.4820   -0.9330  -28.5940 C.ar  301  FNO301      0.0840
     12  C12      -22.5840   -1.4230  -30.9460 C.2   301  FNO301      0.0435
     13  C14      -20.8330   -5.3030  -32.7510 C.2   301  FNO301     -0.0316
     14  C16      -22.4000   -0.0270  -27.5670 C.ar  301  FNO301      0.1990
     15  C18      -22.4280   -1.7530  -25.9490 C.ar  301  FNO301      0.0454
     16  C19      -22.3700   -0.4150  -26.2540 C.ar  301  FNO301      0.0454
     17  O01      -23.9340   -4.4140  -31.7460 O.3   301  FNO301     -0.2178
     18  O02      -22.6620   -4.3580  -29.0740 O.2   301  FNO301     -0.2867
     19  O03      -22.5540   -3.9600  -26.7190 O.3   301  FNO301     -0.2865
     20  O04      -22.4550    0.6420  -30.1830 O.2   301  FNO301     -0.2865
     21  O05      -22.3520    1.2600  -27.9000 O.3   301  FNO301     -0.2865
@<TRIPOS>BOND
     1     6     4    1
     2     4     5    1
     3     4    13    2
     4    13     9    1
     5     7    17    1
     6     7     9    1
     7     7     8    1
     8    12     8    2
     9    12     2    1
    10     8     1    1
    11    20     2    2
    12     2    11    1
    13     1    18    2
    14     1    10    1
    15    11    10   ar
    16    11    14   ar
    17    10     3   ar
    18    21    14    1
    19    14    16   ar
    20     3    19    1
    21     3    15   ar
    22    16    15   ar
