5ZN
  -OEChem-02242320013D

 40 42  0     0  0  0  0  0  0999 V2000
    0.7310    2.1990    0.1720 C   0  0  0  0  0  0  0  0  0  0  0  0
   -0.6340    2.7220   -0.2880 C   0  0  0  0  0  0  0  0  0  0  0  0
   -3.6930    0.4750    0.1420 C   0  0  0  0  0  0  0  0  0  0  0  0
    2.4600    0.7160   -0.4310 C   0  0  0  0  0  0  0  0  0  0  0  0
    3.4880    1.6560   -0.4520 C   0  0  0  0  0  0  0  0  0  0  0  0
    4.7690    1.2810   -0.1690 C   0  0  0  0  0  0  0  0  0  0  0  0
    4.0220   -1.0020    0.1660 C   0  0  0  0  0  0  0  0  0  0  0  0
    2.7330   -0.6140   -0.1200 C   0  0  0  0  0  0  0  0  0  0  0  0
   -4.2460   -1.5830   -0.7630 C   0  0  0  0  0  0  0  0  0  0  0  0
   -5.8290   -0.8120    0.7860 C   0  0  0  0  0  0  0  0  0  0  0  0
   -2.7690    1.6350    0.2330 C   0  0  0  0  0  0  0  0  0  0  0  0
   -4.9620    0.4210    0.9700 C   0  0  0  0  0  0  0  0  0  0  0  0
    5.0560   -0.0540    0.1440 C   0  0  0  0  0  0  0  0  0  0  0  0
    6.4320   -0.4590    0.4490 C   0  0  0  0  0  0  0  0  0  0  0  0
   -1.1490    0.3980   -1.1300 C   0  0  0  0  0  0  0  0  0  0  0  0
    0.2360   -0.0340   -0.6370 C   0  0  0  0  0  0  0  0  0  0  0  0
   -3.4400   -0.5220   -0.6530 N   0  0  0  0  0  0  0  0  0  0  0  0
   -5.3880   -1.7480   -0.0840 N   0  0  0  0  0  0  0  0  0  0  0  0
   -1.5660    1.5870   -0.3700 N   0  0  0  0  0  0  0  0  0  0  0  0
    1.1580    1.1080   -0.7150 N   0  0  0  0  0  0  0  0  0  0  0  0
   -3.9180   -2.4620   -1.5360 O   0  0  0  0  0  0  0  0  0  0  0  0
   -6.8650   -0.9550    1.4000 O   0  0  0  0  0  0  0  0  0  0  0  0
    7.3250    0.3630    0.4290 O   0  0  0  0  0  0  0  0  0  0  0  0
   -3.0990    2.6270    0.8520 O   0  0  0  0  0  0  0  0  0  0  0  0
    4.3670   -2.6580    0.5550 Cl  0  0  0  0  0  0  0  0  0  0  0  0
    1.4620    3.0060    0.1330 H   0  0  0  0  0  0  0  0  0  0  0  0
    0.6530    1.8280    1.1940 H   0  0  0  0  0  0  0  0  0  0  0  0
   -1.0070    3.4510    0.4310 H   0  0  0  0  0  0  0  0  0  0  0  0
   -0.5350    3.1910   -1.2670 H   0  0  0  0  0  0  0  0  0  0  0  0
    3.2700    2.6860   -0.6940 H   0  0  0  0  0  0  0  0  0  0  0  0
    5.5630    2.0140   -0.1870 H   0  0  0  0  0  0  0  0  0  0  0  0
    1.9340   -1.3400   -0.1040 H   0  0  0  0  0  0  0  0  0  0  0  0
   -4.6850    0.4870    2.0220 H   0  0  0  0  0  0  0  0  0  0  0  0
   -5.5630    1.2970    0.7270 H   0  0  0  0  0  0  0  0  0  0  0  0
    6.6520   -1.4880    0.6910 H   0  0  0  0  0  0  0  0  0  0  0  0
   -1.1000    0.6400   -2.1910 H   0  0  0  0  0  0  0  0  0  0  0  0
   -1.8620   -0.4100   -0.9710 H   0  0  0  0  0  0  0  0  0  0  0  0
    0.1650   -0.3740    0.3960 H   0  0  0  0  0  0  0  0  0  0  0  0
    0.6090   -0.8450   -1.2620 H   0  0  0  0  0  0  0  0  0  0  0  0
   -5.9150   -2.5490   -0.2280 H   0  0  0  0  0  0  0  0  0  0  0  0
 10 22  2  0  0  0  0
 10 12  1  0  0  0  0
 10 18  1  0  0  0  0
  3 12  1  0  0  0  0
  9 18  1  0  0  0  0
  3 17  2  0  0  0  0
  3 11  1  0  0  0  0
  9 17  1  0  0  0  0
  9 21  2  0  0  0  0
  7 25  1  0  0  0  0
 11 24  2  0  0  0  0
 11 19  1  0  0  0  0
 15 16  1  0  0  0  0
 16 20  1  0  0  0  0
  7  8  2  0  0  0  0
  4  8  1  0  0  0  0
  7 13  1  0  0  0  0
 15 19  1  0  0  0  0
  2 19  1  0  0  0  0
  1 20  1  0  0  0  0
  4 20  1  0  0  0  0
  1  2  1  0  0  0  0
  4  5  2  0  0  0  0
 13 14  1  0  0  0  0
  6 13  2  0  0  0  0
 14 23  2  0  0  0  0
  5  6  1  0  0  0  0
  1 26  1  0  0  0  0
  1 27  1  0  0  0  0
  2 28  1  0  0  0  0
  2 29  1  0  0  0  0
  5 30  1  0  0  0  0
  6 31  1  0  0  0  0
  8 32  1  0  0  0  0
 12 33  1  0  0  0  0
 12 34  1  0  0  0  0
 14 35  1  0  0  0  0
 15 36  1  0  0  0  0
 15 37  1  0  0  0  0
 16 38  1  0  0  0  0
 16 39  1  0  0  0  0
 18 40  1  0  0  0  0
M  END
> <OPENEYE_ISO_SMILES>
c1cc(c(cc1N2CCN(CC2)C(=O)C3=NC(=O)NC(=O)C3)Cl)C=O

> <OPENEYE_INCHI>
InChI=1S/C16H15ClN4O4/c17-12-7-11(2-1-10(12)9-22)20-3-5-21(6-4-20)15(24)13-8-14(23)19-16(25)18-13/h1-2,7,9H,3-6,8H2,(H,19,23,25)

> <OPENEYE_INCHIKEY>
KUILKXDVCXJXPR-UHFFFAOYSA-N

> <FORMULA>
C16H15ClN4O4

$$$$
