H04
  -OEChem-02242320023D

 33 34  0     0  0  0  0  0  0999 V2000
    1.0050   -0.0640    0.0110 N   0  0  0  0  0  0  0  0  0  0  0  0
   -2.5440    0.9230   -0.0100 C   0  0  0  0  0  0  0  0  0  0  0  0
   -2.4290    2.3000   -0.0150 C   0  0  0  0  0  0  0  0  0  0  0  0
   -1.1810    2.8940   -0.0110 C   0  0  0  0  0  0  0  0  0  0  0  0
   -0.0410    2.1120   -0.0020 C   0  0  0  0  0  0  0  0  0  0  0  0
   -0.1480    0.7290    0.0030 C   0  0  0  0  0  0  0  0  0  0  0  0
    2.9950   -0.8090   -1.2050 C   0  0  0  0  0  0  0  0  0  0  0  0
   -2.7650   -3.2930    0.0220 C   0  0  0  0  0  0  0  0  0  0  0  0
   -2.8410   -1.7650    0.0100 C   0  0  0  0  0  0  0  0  0  0  0  0
   -1.5180   -1.2230    0.0090 O   0  0  0  0  0  0  0  0  0  0  0  0
   -1.4070    0.1320   -0.0010 C   0  0  0  0  0  0  0  0  0  0  0  0
    1.7880    0.1320   -1.2170 C   0  0  0  0  0  0  0  0  0  0  0  0
    3.8120   -0.5380   -0.0140 N   0  0  0  0  0  0  0  0  0  0  0  0
    3.0290   -0.7340    1.2140 C   0  0  0  0  0  0  0  0  0  0  0  0
    1.8220    0.2070    1.2020 C   0  0  0  0  0  0  0  0  0  0  0  0
   -3.5210    0.4620   -0.0080 H   0  0  0  0  0  0  0  0  0  0  0  0
   -3.3180    2.9150   -0.0210 H   0  0  0  0  0  0  0  0  0  0  0  0
   -1.0960    3.9710   -0.0160 H   0  0  0  0  0  0  0  0  0  0  0  0
    0.9340    2.5790    0.0000 H   0  0  0  0  0  0  0  0  0  0  0  0
    2.6500   -1.8430   -1.1810 H   0  0  0  0  0  0  0  0  0  0  0  0
    3.5930   -0.6460   -2.1010 H   0  0  0  0  0  0  0  0  0  0  0  0
   -2.2320   -3.6380   -0.8640 H   0  0  0  0  0  0  0  0  0  0  0  0
   -2.2360   -3.6240    0.9160 H   0  0  0  0  0  0  0  0  0  0  0  0
   -3.7730   -3.7070    0.0230 H   0  0  0  0  0  0  0  0  0  0  0  0
   -3.3690   -1.4350   -0.8830 H   0  0  0  0  0  0  0  0  0  0  0  0
   -3.3740   -1.4210    0.8960 H   0  0  0  0  0  0  0  0  0  0  0  0
    1.1650   -0.0870   -2.0840 H   0  0  0  0  0  0  0  0  0  0  0  0
    2.1320    1.1640   -1.2680 H   0  0  0  0  0  0  0  0  0  0  0  0
    4.2040    0.3910   -0.0490 H   0  0  0  0  0  0  0  0  0  0  0  0
    2.6850   -1.7660    1.2650 H   0  0  0  0  0  0  0  0  0  0  0  0
    3.6520   -0.5150    2.0820 H   0  0  0  0  0  0  0  0  0  0  0  0
    2.1670    1.2410    1.1790 H   0  0  0  0  0  0  0  0  0  0  0  0
    1.2240    0.0440    2.0990 H   0  0  0  0  0  0  0  0  0  0  0  0
  2  3  2  0  0  0  0
  3  4  1  0  0  0  0
  2 11  1  0  0  0  0
  8  9  1  0  0  0  0
  9 10  1  0  0  0  0
  4  5  2  0  0  0  0
 10 11  1  0  0  0  0
  6 11  2  0  0  0  0
  5  6  1  0  0  0  0
  1  6  1  0  0  0  0
  1 15  1  0  0  0  0
  1 12  1  0  0  0  0
 14 15  1  0  0  0  0
  7 12  1  0  0  0  0
 13 14  1  0  0  0  0
  7 13  1  0  0  0  0
  2 16  1  0  0  0  0
  3 17  1  0  0  0  0
  4 18  1  0  0  0  0
  5 19  1  0  0  0  0
  7 20  1  0  0  0  0
  7 21  1  0  0  0  0
  8 22  1  0  0  0  0
  8 23  1  0  0  0  0
  8 24  1  0  0  0  0
  9 25  1  0  0  0  0
  9 26  1  0  0  0  0
 12 27  1  0  0  0  0
 12 28  1  0  0  0  0
 13 29  1  0  0  0  0
 14 30  1  0  0  0  0
 14 31  1  0  0  0  0
 15 32  1  0  0  0  0
 15 33  1  0  0  0  0
M  END
> <OPENEYE_ISO_SMILES>
CCOc1ccccc1N2CCNCC2

> <OPENEYE_INCHI>
InChI=1S/C12H18N2O/c1-2-15-12-6-4-3-5-11(12)14-9-7-13-8-10-14/h3-6,13H,2,7-10H2,1H3

> <OPENEYE_INCHIKEY>
FBQIUSDQWOLCNY-UHFFFAOYSA-N

> <FORMULA>
C12H18N2O

$$$$
