T0W
  -OEChem-02242320043D

 37 39  0     0  0  0  0  0  0999 V2000
   -3.5760    0.1940    0.6430 C   0  0  0  0  0  0  0  0  0  0  0  0
    3.2390   -1.1510    0.5690 C   0  0  0  0  0  0  0  0  0  0  0  0
   -4.7930    0.0040   -0.0500 C   0  0  0  0  0  0  0  0  0  0  0  0
   -5.3320    1.2230   -0.2350 C   0  0  0  0  0  0  0  0  0  0  0  0
    4.8690    1.0960    0.3660 C   0  0  0  0  0  0  0  0  0  0  0  0
   -3.4440    1.5180    0.8410 C   0  0  0  0  0  0  0  0  0  0  0  0
   -0.4840   -0.4190   -0.0060 C   0  0  0  0  0  0  0  0  0  0  0  0
    0.5240   -0.6670   -1.0980 C   0  0  0  0  0  0  0  0  0  0  0  0
    3.6280    1.0800   -0.2840 C   0  0  0  0  0  0  0  0  0  0  0  0
    5.2730    0.0120    1.0890 C   0  0  0  0  0  0  0  0  0  0  0  0
    4.4650   -1.1120    1.1940 C   0  0  0  0  0  0  0  0  0  0  0  0
   -1.6340   -1.1210    0.0210 N   0  0  0  0  0  0  0  0  0  0  0  0
    1.6780    0.2150   -0.9070 N   0  0  0  0  0  0  0  0  0  0  0  0
   -2.6150   -0.8800    1.0820 C   0  0  0  0  0  0  0  0  0  0  0  0
    1.8450    1.5050   -1.4310 N   0  0  0  0  0  0  0  0  0  0  0  0
   -1.3630   -3.4830   -0.5540 C   0  0  0  0  0  0  0  0  0  0  0  0
    2.8110   -0.0580   -0.1770 C   0  0  0  0  0  0  0  0  0  0  0  0
   -1.9030   -2.1260   -1.0100 C   0  0  0  0  0  0  0  0  0  0  0  0
    2.9780    1.9800   -1.0500 N   0  0  0  0  0  0  0  0  0  0  0  0
   -4.5100    2.1360    0.3080 O   0  0  0  0  0  0  0  0  0  0  0  0
   -0.2610    0.4130    0.8480 O   0  0  0  0  0  0  0  0  0  0  0  0
    2.6140   -2.0280    0.6540 H   0  0  0  0  0  0  0  0  0  0  0  0
   -5.2110   -0.9390   -0.3710 H   0  0  0  0  0  0  0  0  0  0  0  0
   -6.2660    1.4310   -0.7340 H   0  0  0  0  0  0  0  0  0  0  0  0
    5.5070    1.9650    0.2920 H   0  0  0  0  0  0  0  0  0  0  0  0
   -2.6190    2.0020    1.3440 H   0  0  0  0  0  0  0  0  0  0  0  0
    0.8510   -1.7060   -1.0610 H   0  0  0  0  0  0  0  0  0  0  0  0
    0.0690   -0.4640   -2.0670 H   0  0  0  0  0  0  0  0  0  0  0  0
    6.2310    0.0300    1.5880 H   0  0  0  0  0  0  0  0  0  0  0  0
    4.8000   -1.9620    1.7710 H   0  0  0  0  0  0  0  0  0  0  0  0
   -2.0990   -0.5590    1.9870 H   0  0  0  0  0  0  0  0  0  0  0  0
   -3.1650   -1.7990    1.2850 H   0  0  0  0  0  0  0  0  0  0  0  0
   -1.8520   -3.7760    0.3740 H   0  0  0  0  0  0  0  0  0  0  0  0
   -1.5630   -4.2310   -1.3220 H   0  0  0  0  0  0  0  0  0  0  0  0
   -0.2880   -3.4090   -0.3910 H   0  0  0  0  0  0  0  0  0  0  0  0
   -2.9790   -2.2000   -1.1740 H   0  0  0  0  0  0  0  0  0  0  0  0
   -1.4140   -1.8340   -1.9390 H   0  0  0  0  0  0  0  0  0  0  0  0
 15 19  2  0  0  0  0
  9 19  1  0  0  0  0
  5  9  2  0  0  0  0
  5 10  1  0  0  0  0
 13 15  1  0  0  0  0
  9 17  1  0  0  0  0
 10 11  2  0  0  0  0
 13 17  1  0  0  0  0
  8 13  1  0  0  0  0
  2 17  2  0  0  0  0
  7  8  1  0  0  0  0
  2 11  1  0  0  0  0
  7 21  2  0  0  0  0
  7 12  1  0  0  0  0
  6 20  1  0  0  0  0
  1  6  2  0  0  0  0
 12 14  1  0  0  0  0
 12 18  1  0  0  0  0
  4 20  1  0  0  0  0
  1 14  1  0  0  0  0
  1  3  1  0  0  0  0
 16 18  1  0  0  0  0
  3  4  2  0  0  0  0
  2 22  1  0  0  0  0
  3 23  1  0  0  0  0
  4 24  1  0  0  0  0
  5 25  1  0  0  0  0
  6 26  1  0  0  0  0
  8 27  1  0  0  0  0
  8 28  1  0  0  0  0
 10 29  1  0  0  0  0
 11 30  1  0  0  0  0
 14 31  1  0  0  0  0
 14 32  1  0  0  0  0
 16 33  1  0  0  0  0
 16 34  1  0  0  0  0
 16 35  1  0  0  0  0
 18 36  1  0  0  0  0
 18 37  1  0  0  0  0
M  END
> <OPENEYE_ISO_SMILES>
CCN(Cc1ccoc1)C(=O)Cn2c3ccccc3nn2

> <OPENEYE_INCHI>
InChI=1S/C15H16N4O2/c1-2-18(9-12-7-8-21-11-12)15(20)10-19-14-6-4-3-5-13(14)16-17-19/h3-8,11H,2,9-10H2,1H3

> <OPENEYE_INCHIKEY>
IKYIQYHISJXELQ-UHFFFAOYSA-N

> <FORMULA>
C15H16N4O2

$$$$
