@<TRIPOS>MOLECULE
/home/pku/3cl/gett_pdb/6Z6I/6Z6I_mol2/ligand/6Z6I_A1R.pdb
 35 38 0 0 0
SMALL
GASTEIGER

@<TRIPOS>ATOM
      1  N1        -7.0320  -10.3290   -0.3320 N.ar  401  A1R401     -0.2040
      2  C2        -6.5730   -9.2530    0.3600 C.ar  401  A1R401      0.2016
      3  N3        -6.6670   -8.9970    1.6840 N.ar  401  A1R401     -0.2048
      4  C4        -7.3250  -10.0000    2.3000 C.ar  401  A1R401      0.1692
      5  C5        -7.8650  -11.1410    1.7300 C.ar  401  A1R401      0.1518
      6  C6        -7.7090  -11.2850    0.3550 C.ar  401  A1R401      0.1919
      7  N6        -8.2410  -12.4030   -0.3140 N.pl3 401  A1R401     -0.1054
      8  N7        -8.4600  -11.9230    2.6820 N.ar  401  A1R401     -0.2193
      9  C8        -8.2990  -11.2700    3.8150 C.ar  401  A1R401      0.1816
     10  N9        -7.6170  -10.1000    3.6350 N.ar  401  A1R401     -0.2693
     11  C1'       -7.2300   -9.1330    4.6650 C.3   401  A1R401      0.2409
     12  C2'       -7.9830   -9.2860    5.9720 C.3   401  A1R401      0.2337
     13  O2'       -9.2460   -8.6410    5.9330 O.3   401  A1R401     -0.2155
     14  C3'       -7.0030   -8.6680    6.9480 C.3   401  A1R401      0.2161
     15  O3'       -7.0830   -7.2480    6.8220 O.3   401  A1R401     -0.2175
     16  O4'       -5.8520   -9.4000    4.9910 O.3   401  A1R401     -0.3306
     17  C4'       -5.6470   -9.1540    6.4110 C.3   401  A1R401      0.1801
     18  C5'       -5.0360  -10.4040    7.0710 C.3   401  A1R401      0.1813
     19  O5'       -5.9830  -11.2540    7.7150 O.3   401  A1R401     -0.3112
     20  PA        -5.8560  -12.8660    7.5530 P.3   401  A1R401      0.2189
     21  O1A       -5.8190  -13.3490    6.1430 O.2   401  A1R401     -0.5170
     22  O2A       -6.9510  -13.5110    8.5510 O.3   401  A1R401     -0.4371
     23  O3A       -4.4900  -13.1580    8.3200 O.3   401  A1R401     -0.2703
     24  PB        -4.0570  -13.2040    9.8640 P.3   401  A1R401      0.2189
     25  O1B       -4.9660  -12.1230   10.6410 O.3   401  A1R401     -0.4371
     26  O2B       -2.5700  -13.0200    9.9730 O.2   401  A1R401     -0.5170
     27  O5N       -4.5510  -14.6620   10.3510 O.3   401  A1R401     -0.3123
     28  C5N       -3.7690  -15.7600    9.9120 C.3   401  A1R401      0.1691
     29  N4N       -5.7210  -16.9930    8.9920 N.3   401  A1R401     -0.2114
     30  C1N       -5.7740  -18.3240    8.3720 C.3   401  A1R401      0.1243
     31  O2N       -4.3490  -20.2190    8.2280 O.3   401  A1R401     -0.2188
     32  C2N       -4.3400  -18.8070    8.4310 C.3   401  A1R401      0.2009
     33  O3N       -4.1450  -19.2010   10.8870 O.3   401  A1R401     -0.2188
     34  C3N       -3.8690  -18.3190    9.8090 C.3   401  A1R401      0.2018
     35  C4N       -4.6320  -17.0080    9.9920 C.3   401  A1R401      0.1357
@<TRIPOS>BOND
     1     1     6   ar
     2     1     2   ar
     3     7     6    1
     4     6     5   ar
     5     2     3   ar
     6     3     4   ar
     7     5     4   ar
     8     5     8   ar
     9     4    10   ar
    10     8     9   ar
    11    10     9   ar
    12    10    11    1
    13    11    16    1
    14    11    12    1
    15    16    17    1
    16    13    12    1
    17    12    14    1
    18    21    20    2
    19    17    14    1
    20    17    18    1
    21    15    14    1
    22    18    19    1
    23    20    19    1
    24    20    23    1
    25    20    22    1
    26    31    32    1
    27    23    24    1
    28    30    32    1
    29    30    29    1
    30    32    34    1
    31    29    35    1
    32    34    35    1
    33    34    33    1
    34    24    26    2
    35    24    27    1
    36    24    25    1
    37    28    35    1
    38    28    27    1
