@<TRIPOS>MOLECULE
/home/pku/3cl/gett_pdb/7VTH/7VTH_mol2/ligand/7VTH_7XB.pdb
 35 37 0 0 0
SMALL
GASTEIGER

@<TRIPOS>ATOM
      1  C10       -3.6570    2.0910   15.7180 C.ar  501  7XB501      0.2293
      2  C12       -5.4170    3.8820   15.8200 C.ar  501  7XB501      0.0697
      3  C13       -4.7120    5.0990   15.7400 C.ar  501  7XB501     -0.0035
      4  C14       -3.3640    5.2680   15.0370 C.3   501  7XB501      0.0325
      5  C15       -5.2500    6.2510   16.3170 C.ar  501  7XB501      0.0341
      6  C01       -0.7210   -2.3830   19.4180 C.3   501  7XB501      0.1386
      7  N02       -0.8380   -1.1040   18.7830 N.am  501  7XB501     -0.2019
      8  C03        0.2630   -0.5660   18.0080 C.2   501  7XB501      0.2648
      9  O04        1.3210   -1.0560   17.9030 O.2   501  7XB501     -0.2712
     10  C05        0.1050    0.7540   17.3750 C.3   501  7XB501      0.2017
     11  N06       -1.1900    1.1180   16.8180 N.ar  501  7XB501     -0.2236
     12  C07       -1.7850    2.3310   17.3350 C.ar  501  7XB501      0.3563
     13  O08       -1.2540    2.9270   18.2130 O.2   501  7XB501     -0.2442
     14  N09       -3.0180    2.8180   16.7810 N.ar  501  7XB501     -0.1587
     15  N11       -4.8930    2.6440   15.2130 N.pl3 501  7XB501     -0.1791
     16  C16       -6.4750    6.2160   16.9750 C.ar  501  7XB501      0.1441
     17  O17       -6.9290    7.4470   17.5170 O.3   501  7XB501     -0.4236
     18  C18       -8.1050    7.4310   18.2860 C.3   501  7XB501      0.5087
     19  F19       -7.7750    7.0830   19.5760 F     501  7XB501     -0.1550
     20  F20       -8.6920    8.6660   18.2290 F     501  7XB501     -0.1550
     21  C21       -7.1690    5.0070   17.0530 C.ar  501  7XB501      0.0384
     22  C22       -6.6460    3.8410   16.4670 C.ar  501  7XB501      0.0194
     23  N23       -3.0500    0.8640   15.1990 N.ar  501  7XB501     -0.2484
     24  C24       -3.6670    0.1340   14.1170 C.3   501  7XB501      0.1401
     25  C25       -3.0950    0.6960   12.8130 C.ar  501  7XB501      0.0052
     26  C26       -3.4710    0.0260   11.6650 C.ar  501  7XB501      0.0297
     27  C27       -3.0100    0.4760   10.4420 C.ar  501  7XB501      0.1694
     28  F28       -3.3940   -0.1780    9.3090 F     501  7XB501     -0.2017
     29  C29       -2.1620    1.5780   10.3710 C.ar  501  7XB501      0.1946
     30  F30       -1.7410    1.9500    9.1370 F     501  7XB501     -0.1994
     31  C31       -1.7630    2.2700   11.5140 C.ar  501  7XB501      0.1694
     32  F32       -0.9300    3.3780   11.4360 F     501  7XB501     -0.2017
     33  C33       -2.2400    1.8130   12.7490 C.ar  501  7XB501      0.0297
     34  C34       -1.7920    0.3900   15.7350 C.ar  501  7XB501      0.3376
     35  O35       -1.2770   -0.5960   15.3180 O.2   501  7XB501     -0.2461
@<TRIPOS>BOND
     1    30    29    1
     2    28    27    1
     3    29    27   ar
     4    29    31   ar
     5    27    26   ar
     6    32    31    1
     7    31    33   ar
     8    26    25   ar
     9    33    25   ar
    10    25    24    1
    11    24    23    1
    12     4     3    1
    13    23     1   ar
    14    23    34   ar
    15    15     1    1
    16    15     2    1
    17    35    34    2
    18     1    14   ar
    19    34    11   ar
    20     3     2   ar
    21     3     5   ar
    22     2    22   ar
    23     5    16   ar
    24    22    21   ar
    25    14    12   ar
    26    11    12   ar
    27    11    10    1
    28    16    21   ar
    29    16    17    1
    30    12    13    2
    31    10     8    1
    32    17    18    1
    33     9     8    2
    34     8     7   am
    35    20    18    1
    36    18    19    1
    37     7     6    1
