@<TRIPOS>MOLECULE
/home/pku/3cl/gett_pdb/7S71/7S71_mol2/ligand/7S71_8H9.pdb
 45 47 0 0 0
SMALL
GASTEIGER

@<TRIPOS>ATOM
      1  C1       -13.9060   -9.9750  -16.6690 C.2   401  8H9401      0.2736
      2  C10      -10.0720   -9.5280  -19.6970 C.3   401  8H9401      0.0000
      3  C11       -9.8990  -17.1320  -18.4120 C.3   401  8H9401      0.1727
      4  C12      -10.0380  -15.9320  -17.5300 C.2   401  8H9401      0.2459
      5  C13       -8.4800  -14.6450  -19.0240 C.3   401  8H9401      0.0939
      6  C14       -9.5240  -13.6660  -17.0710 C.3   401  8H9401      0.1535
      7  C15      -10.9120  -13.1550  -17.2960 C.2   401  8H9401      0.2595
      8  C16       -7.8110  -13.2880  -18.7900 C.3   401  8H9401      0.0220
      9  C17      -12.9190  -12.2630  -16.4510 C.3   401  8H9401      0.1351
     10  C18       -7.0430  -13.1230  -17.4680 C.3   401  8H9401      0.0037
     11  C19      -13.8950  -13.0000  -15.5140 C.3   401  8H9401      0.0340
     12  C2       -13.8040   -9.1340  -20.7960 C.3   401  8H9401      0.0018
     13  C20      -14.0100  -14.4730  -15.9350 C.3   401  8H9401      0.0818
     14  C21      -14.8180  -14.6680  -17.2110 C.3   401  8H9401      0.0326
     15  C22      -15.6100  -15.9660  -17.0000 C.3   401  8H9401      0.1156
     16  C23       -6.6280  -14.4370  -16.7930 C.3   401  8H9401      0.0001
     17  C24      -14.7500  -15.3450  -14.9470 C.2   401  8H9401      0.2410
     18  C25       -5.9280  -12.0810  -17.6070 C.3   401  8H9401      0.0001
     19  C26      -10.9090  -18.6140  -20.1240 C.3   401  8H9401      0.0022
     20  C27       -5.9850  -20.9490  -17.9010 C.3   401  8H9401      0.0218
     21  C28       -5.9530  -20.5590  -15.4670 C.3   401  8H9401      0.0218
     22  C29       -5.1510  -18.7940  -17.0040 C.3   401  8H9401      0.0218
     23  C3       -14.5820   -8.4100  -18.4480 C.3   401  8H9401      0.1152
     24  C30      -11.2130  -17.5210  -19.1050 C.3   401  8H9401      0.0270
     25  C31      -11.7890  -16.3090  -19.8280 C.3   401  8H9401      0.0022
     26  C32      -12.2450  -18.0720  -18.1270 C.3   401  8H9401      0.0022
     27  C34       -8.4950  -12.6620  -17.5830 C.3   401  8H9401      0.0289
     28  C4       -14.0760   -7.9820  -19.8280 C.3   401  8H9401      0.0234
     29  C5       -12.4200   -9.7620  -20.5990 C.3   401  8H9401      0.0001
     30  C6       -11.3980   -8.8330  -19.9350 C.3   401  8H9401      0.0000
     31  C7        -6.1870  -19.8990  -16.8200 C.3   401  8H9401      0.0804
     32  C8       -12.7370  -10.7660  -16.2350 C.3   401  8H9401      0.2487
     33  C9        -8.1030  -18.6010  -17.8010 C.2   401  8H9401      0.3395
     34  N10       -9.3580  -18.2020  -17.6050 N.am  401  8H9401     -0.1796
     35  N13       -9.3790  -14.8450  -17.8960 N.am  401  8H9401     -0.2716
     36  N16      -11.5830  -12.7670  -16.2300 N.am  401  8H9401     -0.2027
     37  N2       -13.6130   -9.1360  -17.6600 N.am  401  8H9401     -0.2032
     38  N23      -15.5680  -16.1900  -15.5670 N.am  401  8H9401     -0.2054
     39  N8        -7.5590  -19.3800  -16.8620 N.am  401  8H9401     -0.1906
     40  O26      -14.5940  -15.2720  -13.7420 O.2   401  8H9401     -0.2734
     41  O29       -7.5180  -18.2550  -18.8230 O.2   401  8H9401     -0.2492
     42  O33      -10.6900  -15.9560  -16.4970 O.2   401  8H9401     -0.2730
     43  O38      -11.4140  -13.1330  -18.4050 O.2   401  8H9401     -0.2716
     44  O5       -14.9600  -10.1330  -16.0940 O.2   401  8H9401     -0.2705
     45  O9       -11.6160  -10.2380  -16.9770 O.3   401  8H9401     -0.2113
@<TRIPOS>BOND
     1    12    29    1
     2    12    28    1
     3    29    30    1
     4    19    24    1
     5    30     2    1
     6    28    23    1
     7    25    24    1
     8    24     3    1
     9    24    26    1
    10     5     8    1
    11     5    35    1
    12    41    33    2
    13     8    27    1
    14     8    10    1
    15    23    37    1
    16     3    34    1
    17     3     4    1
    18    43     7    2
    19    20    31    1
    20    35     4   am
    21    35     6    1
    22    33    34   am
    23    33    39   am
    24    37     1   am
    25    18    10    1
    26    27    10    1
    27    27     6    1
    28     4    42    2
    29    10    16    1
    30     7     6    1
    31     7    36   am
    32    14    15    1
    33    14    13    1
    34    22    31    1
    35    15    38    1
    36    45    32    1
    37    39    31    1
    38    31    21    1
    39     1    32    1
    40     1    44    2
    41     9    32    1
    42     9    36    1
    43     9    11    1
    44    13    11    1
    45    13    17    1
    46    38    17   am
    47    17    40    2
