NUA
  -OEChem-02242320033D

 29 30  0     0  0  0  0  0  0999 V2000
   -2.9700   -0.1420   -0.2290 N   0  0  0  0  0  0  0  0  0  0  0  0
   -2.4700    1.1350    0.0530 N   0  0  0  0  0  0  0  0  0  0  0  0
   -0.7830   -0.2270   -0.3050 C   0  0  0  0  0  0  0  0  0  0  0  0
    1.5740    0.1490   -0.2760 C   0  0  0  0  0  0  0  0  0  0  0  0
    2.9870   -0.3510   -0.4320 C   0  0  0  0  0  0  0  0  0  0  0  0
    4.0530    0.7320   -0.2010 C   0  0  0  0  0  0  0  0  0  0  0  0
    4.8710   -0.3410    0.5370 C   0  0  0  0  0  0  0  0  0  0  0  0
   -1.1640    1.0860    0.0080 C   0  0  0  0  0  0  0  0  0  0  0  0
   -5.0620   -0.1450    1.0380 C   0  0  0  0  0  0  0  0  0  0  0  0
   -4.3840   -0.5230   -0.2800 C   0  0  0  0  0  0  0  0  0  0  0  0
   -1.9130   -0.9640   -0.4520 C   0  0  0  0  0  0  0  0  0  0  0  0
    3.5360   -1.0490    0.8230 C   0  0  0  0  0  0  0  0  0  0  0  0
    0.5370   -0.6940   -0.4510 N   0  0  0  0  0  0  0  0  0  0  0  0
    1.3700    1.3110    0.0070 O   0  0  0  0  0  0  0  0  0  0  0  0
    3.1350   -0.9210   -1.3500 H   0  0  0  0  0  0  0  0  0  0  0  0
    4.5240    1.0850   -1.1180 H   0  0  0  0  0  0  0  0  0  0  0  0
    3.7170    1.5450    0.4430 H   0  0  0  0  0  0  0  0  0  0  0  0
    5.5350   -0.9090   -0.1150 H   0  0  0  0  0  0  0  0  0  0  0  0
    5.3710    0.0290    1.4320 H   0  0  0  0  0  0  0  0  0  0  0  0
   -0.4930    1.9140    0.1860 H   0  0  0  0  0  0  0  0  0  0  0  0
   -6.1140   -0.4280    1.0000 H   0  0  0  0  0  0  0  0  0  0  0  0
   -4.5750   -0.6680    1.8610 H   0  0  0  0  0  0  0  0  0  0  0  0
   -4.9810    0.9310    1.1930 H   0  0  0  0  0  0  0  0  0  0  0  0
   -4.8720    0.0010   -1.1030 H   0  0  0  0  0  0  0  0  0  0  0  0
   -4.4650   -1.5990   -0.4350 H   0  0  0  0  0  0  0  0  0  0  0  0
   -1.9620   -2.0150   -0.6950 H   0  0  0  0  0  0  0  0  0  0  0  0
    3.0580   -0.7240    1.7480 H   0  0  0  0  0  0  0  0  0  0  0  0
    3.5880   -2.1340    0.7320 H   0  0  0  0  0  0  0  0  0  0  0  0
    0.7000   -1.6230   -0.6780 H   0  0  0  0  0  0  0  0  0  0  0  0
  5 12  1  0  0  0  0
  7 12  1  0  0  0  0
  4  5  1  0  0  0  0
  5  6  1  0  0  0  0
  6  7  1  0  0  0  0
  4 13  1  0  0  0  0
  3 13  1  0  0  0  0
  3  8  1  0  0  0  0
  2  8  2  0  0  0  0
  4 14  2  0  0  0  0
  3 11  2  0  0  0  0
  1  2  1  0  0  0  0
  1 11  1  0  0  0  0
  1 10  1  0  0  0  0
  9 10  1  0  0  0  0
  5 15  1  0  0  0  0
  6 16  1  0  0  0  0
  6 17  1  0  0  0  0
  7 18  1  0  0  0  0
  7 19  1  0  0  0  0
  8 20  1  0  0  0  0
  9 21  1  0  0  0  0
  9 22  1  0  0  0  0
  9 23  1  0  0  0  0
 10 24  1  0  0  0  0
 10 25  1  0  0  0  0
 11 26  1  0  0  0  0
 12 27  1  0  0  0  0
 12 28  1  0  0  0  0
 13 29  1  0  0  0  0
M  END
> <OPENEYE_ISO_SMILES>
CCn1cc(cn1)NC(=O)C2CCC2

> <OPENEYE_INCHI>
InChI=1S/C10H15N3O/c1-2-13-7-9(6-11-13)12-10(14)8-4-3-5-8/h6-8H,2-5H2,1H3,(H,12,14)

> <OPENEYE_INCHIKEY>
UVTFDTBDFQZRHD-UHFFFAOYSA-N

> <FORMULA>
C10H15N3O

$$$$
