@<TRIPOS>MOLECULE
/home/pku/3cl/gett_pdb/5SSE/5SSE_mol2/ligand/5SSE_ROO.pdb
 37 40 0 0 0
SMALL
GASTEIGER

@<TRIPOS>ATOM
      1  C18      -41.6040  -34.7210   -6.2120 C.ar  201  ROO201      0.0085
      2  C16      -40.9630  -33.2710   -8.0480 C.ar  201  ROO201     -0.0611
      3  C17      -41.6650  -33.4810   -6.8650 C.ar  201  ROO201     -0.0521
      4  C15      -40.1890  -34.2940   -8.5900 C.ar  201  ROO201     -0.0598
      5  C14      -40.1260  -35.5210   -7.9510 C.ar  201  ROO201     -0.0377
      6  C13      -40.8350  -35.7290   -6.7600 C.ar  201  ROO201      0.0483
      7  C11      -41.7240  -36.5600   -4.9300 C.ar  201  ROO201      0.1296
      8  C20      -44.5230  -33.1660   -0.3620 C.ar  201  ROO201     -0.0095
      9  C19      -42.1860  -35.2590   -5.0170 C.ar  201  ROO201      0.0472
     10  C01      -41.4570  -31.2430    0.5590 C.3   201  ROO201     -0.0057
     11  C02      -42.6410  -31.9790   -0.0720 C.ar  201  ROO201      0.1118
     12  C04      -43.9590  -32.7920   -1.5850 C.ar  201  ROO201      0.1197
     13  C05      -44.5730  -33.1000   -2.9620 C.3   201  ROO201      0.0568
     14  C07      -43.0460  -34.8160   -3.9900 C.3   201  ROO201      0.1858
     15  C09      -42.9110  -36.8680   -2.9630 C.2   201  ROO201      0.1048
     16  C21      -43.6430  -32.6360    0.6400 C.ar  201  ROO201      0.0481
     17  C22      -43.7500  -32.7630    2.1610 C.2   201  ROO201      0.1219
     18  N06      -43.5900  -33.4710   -3.9700 N.3   201  ROO201     -0.2785
     19  N08      -43.3770  -35.6330   -3.0040 N.2   201  ROO201     -0.2433
     20  N10      -42.1060  -37.3240   -3.8990 N.pl3 201  ROO201     -0.1859
     21  N12      -40.9290  -36.8060   -5.9750 N.ar  201  ROO201     -0.3411
     22  O03      -42.8830  -32.0900   -1.3510 O.2   201  ROO201     -0.4629
     23  O23      -43.2230  -31.9000    2.9170 O.co2 201  ROO201     -0.3035
     24  O24      -44.3570  -33.7470    2.6590 O.co2 201  ROO201     -0.8440
     25 H161      -41.0110  -32.3120   -8.5480 H     201  ROO201      0.0618
     26 H171      -42.2620  -32.6810   -6.4510 H     201  ROO201      0.0624
     27 H151      -39.6390  -34.1360   -9.5110 H     201  ROO201      0.0618
     28 H141      -39.5260  -36.3210   -8.3690 H     201  ROO201      0.0638
     29 H201      -45.4290  -33.7360   -0.2150 H     201  ROO201      0.0659
     30 H013      -40.5720  -31.4110   -0.0400 H     201  ROO201      0.0308
     31 H011      -41.2780  -31.6050    1.5680 H     201  ROO201      0.0308
     32 H012      -41.6700  -30.1740    0.5950 H     201  ROO201      0.0308
     33 H051      -45.2830  -33.9070   -2.8400 H     201  ROO201      0.0505
     34 H052      -45.1100  -32.2250   -3.3210 H     201  ROO201      0.0505
     35 H091      -43.1990  -37.5160   -2.1490 H     201  ROO201      0.1015
     36 H061      -43.3010  -32.7940   -4.6510 H     201  ROO201      0.1250
     37 H121      -40.4680  -37.6740   -6.1470 H     201  ROO201      0.1671
@<TRIPOS>UNITY_ATOM_ATTR
24 1
charge -1
@<TRIPOS>BOND
     1    27     4    1
     2     4     2   ar
     3     4     5   ar
     4    25     2    1
     5    28     5    1
     6     2     3   ar
     7     5     6   ar
     8     3    26    1
     9     3     1   ar
    10     6     1   ar
    11     6    21   ar
    12     1     9   ar
    13    37    21    1
    14    21     7   ar
    15     9     7   ar
    16     9    14    1
    17     7    20    1
    18    36    18    1
    19    14    18    1
    20    14    19    1
    21    18    13    1
    22    20    15    1
    23    34    13    1
    24    19    15    2
    25    15    35    1
    26    13    33    1
    27    13    12    1
    28    12    22   ar
    29    12     8   ar
    30    22    11   ar
    31     8    29    1
    32     8    16   ar
    33    11    10    1
    34    11    16   ar
    35    30    10    1
    36    10    32    1
    37    10    31    1
    38    16    17    1
    39    17    24   ar
    40    17    23   ar
