G82
  -OEChem-02242320023D

100102  0     1  0  0  0  0  0999 V2000
    8.3470   -1.9310    0.2910 O   0  0  0  0  0  0  0  0  0  0  0  0
    7.5220   -2.0970   -0.5750 C   0  0  0  0  0  0  0  0  0  0  0  0
    7.7270   -3.0170   -1.5300 O   0  0  0  0  0  0  0  0  0  0  0  0
    8.9630   -3.7760   -1.4600 C   0  0  0  0  0  0  0  0  0  0  0  0
    9.0190   -4.7680   -2.6230 C   0  0  0  0  0  0  0  0  0  0  0  0
    6.2580   -1.2760   -0.5790 C   0  0  0  0  0  0  0  0  0  0  0  0
    6.2710   -0.3140    0.6110 C   0  0  0  0  0  0  0  0  0  0  0  0
    4.9880    0.5200    0.6070 C   0  0  2  0  0  0  0  0  0  0  0  0
    5.0560    1.5650    1.7220 C   0  0  0  0  0  0  0  0  0  0  0  0
    6.1700    2.5680    1.4130 C   0  0  2  0  0  0  0  0  0  0  0  0
    6.3660    3.5400    2.5990 C   0  0  0  0  0  0  0  0  0  0  0  0
    6.6880    4.8640    1.8720 C   0  0  0  0  0  0  0  0  0  0  0  0
    6.0670    4.7440    0.5470 N   0  0  0  0  0  0  0  0  0  0  0  0
    5.7710    3.4640    0.2610 C   0  0  0  0  0  0  0  0  0  0  0  0
    5.2590    3.0830   -0.7700 O   0  0  0  0  0  0  0  0  0  0  0  0
    3.8350   -0.3570    0.8290 N   0  0  0  0  0  0  0  0  0  0  0  0
    2.6280   -0.0220    0.3320 C   0  0  0  0  0  0  0  0  0  0  0  0
    2.4750    1.0480   -0.2180 O   0  0  0  0  0  0  0  0  0  0  0  0
    1.4690   -0.9760    0.4590 C   0  0  2  0  0  0  0  0  0  0  0  0
    1.8100   -2.2890   -0.2500 C   0  0  0  0  0  0  0  0  0  0  0  0
    0.7040   -3.2860   -0.0190 C   0  0  0  0  0  0  0  0  0  0  0  0
   -0.3600   -3.3550   -0.8990 C   0  0  0  0  0  0  0  0  0  0  0  0
   -1.3750   -4.2690   -0.6870 C   0  0  0  0  0  0  0  0  0  0  0  0
   -1.3260   -5.1150    0.4050 C   0  0  0  0  0  0  0  0  0  0  0  0
   -0.2620   -5.0470    1.2850 C   0  0  0  0  0  0  0  0  0  0  0  0
    0.7550   -4.1350    1.0700 C   0  0  0  0  0  0  0  0  0  0  0  0
    0.2790   -0.3840   -0.1560 N   0  0  0  0  0  0  0  0  0  0  0  0
   -0.9490   -0.7690    0.2450 C   0  0  0  0  0  0  0  0  0  0  0  0
   -1.0680   -1.6050    1.1150 O   0  0  0  0  0  0  0  0  0  0  0  0
   -2.1740   -0.1590   -0.3870 C   0  0  2  0  0  0  0  0  0  0  0  0
   -2.1670    1.3540   -0.1580 C   0  0  0  0  0  0  0  0  0  0  0  0
   -3.3420    1.9880   -0.9040 C   0  0  0  0  0  0  0  0  0  0  0  0
   -3.3360    3.4780   -0.6780 C   0  0  0  0  0  0  0  0  0  0  0  0
   -4.2810    4.2460   -1.2410 O   0  0  0  0  0  0  0  0  0  0  0  0
   -4.2130    5.6730   -0.9800 C   0  0  0  0  0  0  0  0  0  0  0  0
   -2.8800    6.2220   -1.4910 C   0  0  0  0  0  0  0  0  0  0  0  0
   -5.3650    6.3790   -1.6990 C   0  0  0  0  0  0  0  0  0  0  0  0
   -4.3230    5.9220    0.5260 C   0  0  0  0  0  0  0  0  0  0  0  0
   -2.4790    3.9810    0.0100 O   0  0  0  0  0  0  0  0  0  0  0  0
   -3.3750   -0.7390    0.2170 N   0  0  0  0  0  0  0  0  0  0  0  0
   -4.5340   -0.7600   -0.4720 C   0  0  0  0  0  0  0  0  0  0  0  0
   -4.5810   -0.2970   -1.5950 O   0  0  0  0  0  0  0  0  0  0  0  0
   -5.6380   -1.2930    0.0830 O   0  0  0  0  0  0  0  0  0  0  0  0
   -6.8500   -1.2810   -0.7170 C   0  0  0  0  0  0  0  0  0  0  0  0
   -7.9730   -1.9150    0.0630 C   0  0  0  0  0  0  0  0  0  0  0  0
   -8.7770   -1.1360    0.8740 C   0  0  0  0  0  0  0  0  0  0  0  0
   -9.8070   -1.7170    1.5890 C   0  0  0  0  0  0  0  0  0  0  0  0
  -10.0330   -3.0770    1.4930 C   0  0  0  0  0  0  0  0  0  0  0  0
   -9.2300   -3.8560    0.6810 C   0  0  0  0  0  0  0  0  0  0  0  0
   -8.2030   -3.2740   -0.0370 C   0  0  0  0  0  0  0  0  0  0  0  0
    6.1980   -0.7050   -1.5060 H   0  0  0  0  0  0  0  0  0  0  0  0
    5.3950   -1.9370   -0.5030 H   0  0  0  0  0  0  0  0  0  0  0  0
    9.8110   -3.0940   -1.5230 H   0  0  0  0  0  0  0  0  0  0  0  0
    9.0030   -4.3190   -0.5160 H   0  0  0  0  0  0  0  0  0  0  0  0
    8.1710   -5.4500   -2.5600 H   0  0  0  0  0  0  0  0  0  0  0  0
    8.9790   -4.2250   -3.5670 H   0  0  0  0  0  0  0  0  0  0  0  0
    9.9470   -5.3380   -2.5700 H   0  0  0  0  0  0  0  0  0  0  0  0
    6.3310   -0.8850    1.5380 H   0  0  0  0  0  0  0  0  0  0  0  0
    7.1340    0.3470    0.5350 H   0  0  0  0  0  0  0  0  0  0  0  0
    4.8840    1.0210   -0.3550 H   0  0  0  0  0  0  0  0  0  0  0  0
    4.1030    2.0900    1.7870 H   0  0  0  0  0  0  0  0  0  0  0  0
    5.2650    1.0710    2.6710 H   0  0  0  0  0  0  0  0  0  0  0  0
    3.9410   -1.1780    1.3340 H   0  0  0  0  0  0  0  0  0  0  0  0
    7.1000    2.0470    1.1890 H   0  0  0  0  0  0  0  0  0  0  0  0
    5.4520    3.6300    3.1860 H   0  0  0  0  0  0  0  0  0  0  0  0
    7.2010    3.2270    3.2260 H   0  0  0  0  0  0  0  0  0  0  0  0
    6.2590    5.7070    2.4140 H   0  0  0  0  0  0  0  0  0  0  0  0
    7.7660    4.9880    1.7730 H   0  0  0  0  0  0  0  0  0  0  0  0
    5.8930    5.4910   -0.0460 H   0  0  0  0  0  0  0  0  0  0  0  0
    1.2740   -1.1730    1.5130 H   0  0  0  0  0  0  0  0  0  0  0  0
    1.9180   -2.1070   -1.3190 H   0  0  0  0  0  0  0  0  0  0  0  0
    2.7440   -2.6840    0.1470 H   0  0  0  0  0  0  0  0  0  0  0  0
    0.3740    0.2850   -0.8510 H   0  0  0  0  0  0  0  0  0  0  0  0
   -0.3980   -2.6940   -1.7530 H   0  0  0  0  0  0  0  0  0  0  0  0
    1.5880   -4.0850    1.7560 H   0  0  0  0  0  0  0  0  0  0  0  0
   -2.2060   -4.3230   -1.3750 H   0  0  0  0  0  0  0  0  0  0  0  0
   -2.1190   -5.8290    0.5710 H   0  0  0  0  0  0  0  0  0  0  0  0
   -0.2230   -5.7080    2.1380 H   0  0  0  0  0  0  0  0  0  0  0  0
   -2.1700   -0.3640   -1.4580 H   0  0  0  0  0  0  0  0  0  0  0  0
   -2.2600    1.5590    0.9090 H   0  0  0  0  0  0  0  0  0  0  0  0
   -1.2320    1.7730   -0.5280 H   0  0  0  0  0  0  0  0  0  0  0  0
   -3.3380   -1.1090    1.1130 H   0  0  0  0  0  0  0  0  0  0  0  0
   -3.2490    1.7820   -1.9710 H   0  0  0  0  0  0  0  0  0  0  0  0
   -4.2770    1.5680   -0.5340 H   0  0  0  0  0  0  0  0  0  0  0  0
   -2.8010    6.0440   -2.5640 H   0  0  0  0  0  0  0  0  0  0  0  0
   -2.8280    7.2930   -1.2950 H   0  0  0  0  0  0  0  0  0  0  0  0
   -2.0590    5.7190   -0.9790 H   0  0  0  0  0  0  0  0  0  0  0  0
   -6.3150    5.9880   -1.3340 H   0  0  0  0  0  0  0  0  0  0  0  0
   -5.3130    7.4500   -1.5030 H   0  0  0  0  0  0  0  0  0  0  0  0
   -5.2860    6.2010   -2.7720 H   0  0  0  0  0  0  0  0  0  0  0  0
   -3.5030    5.4190    1.0380 H   0  0  0  0  0  0  0  0  0  0  0  0
   -4.2720    6.9930    0.7220 H   0  0  0  0  0  0  0  0  0  0  0  0
   -5.2730    5.5310    0.8900 H   0  0  0  0  0  0  0  0  0  0  0  0
   -7.1130   -0.2520   -0.9620 H   0  0  0  0  0  0  0  0  0  0  0  0
   -6.6830   -1.8430   -1.6360 H   0  0  0  0  0  0  0  0  0  0  0  0
   -8.5990   -0.0730    0.9490 H   0  0  0  0  0  0  0  0  0  0  0  0
   -7.5770   -3.8820   -0.6740 H   0  0  0  0  0  0  0  0  0  0  0  0
  -10.4340   -1.1080    2.2230 H   0  0  0  0  0  0  0  0  0  0  0  0
  -10.8380   -3.5310    2.0520 H   0  0  0  0  0  0  0  0  0  0  0  0
   -9.4070   -4.9190    0.6070 H   0  0  0  0  0  0  0  0  0  0  0  0
  1  2  2  0  0  0  0
  2  3  1  0  0  0  0
  2  6  1  0  0  0  0
  3  4  1  0  0  0  0
  4  5  1  0  0  0  0
  6  7  1  0  0  0  0
  7  8  1  0  0  0  0
  8  9  1  0  0  0  0
  8 16  1  0  0  0  0
  9 10  1  0  0  0  0
 10 11  1  0  0  0  0
 10 14  1  0  0  0  0
 11 12  1  0  0  0  0
 12 13  1  0  0  0  0
 13 14  1  0  0  0  0
 14 15  2  0  0  0  0
 16 17  1  0  0  0  0
 17 18  2  0  0  0  0
 17 19  1  0  0  0  0
 19 20  1  0  0  0  0
 19 27  1  0  0  0  0
 20 21  1  0  0  0  0
 21 22  1  0  0  0  0
 21 26  2  0  0  0  0
 22 23  2  0  0  0  0
 23 24  1  0  0  0  0
 24 25  2  0  0  0  0
 25 26  1  0  0  0  0
 27 28  1  0  0  0  0
 28 29  2  0  0  0  0
 28 30  1  0  0  0  0
 30 31  1  0  0  0  0
 30 40  1  0  0  0  0
 31 32  1  0  0  0  0
 32 33  1  0  0  0  0
 33 34  1  0  0  0  0
 33 39  2  0  0  0  0
 34 35  1  0  0  0  0
 35 36  1  0  0  0  0
 35 37  1  0  0  0  0
 35 38  1  0  0  0  0
 40 41  1  0  0  0  0
 41 42  2  0  0  0  0
 41 43  1  0  0  0  0
 43 44  1  0  0  0  0
 44 45  1  0  0  0  0
 45 46  1  0  0  0  0
 45 50  2  0  0  0  0
 46 47  2  0  0  0  0
 47 48  1  0  0  0  0
 48 49  2  0  0  0  0
 49 50  1  0  0  0  0
  6 51  1  0  0  0  0
  6 52  1  0  0  0  0
  4 53  1  0  0  0  0
  4 54  1  0  0  0  0
  5 55  1  0  0  0  0
  5 56  1  0  0  0  0
  5 57  1  0  0  0  0
  7 58  1  0  0  0  0
  7 59  1  0  0  0  0
  8 60  1  0  0  0  0
  9 61  1  0  0  0  0
  9 62  1  0  0  0  0
 16 63  1  0  0  0  0
 10 64  1  0  0  0  0
 11 65  1  0  0  0  0
 11 66  1  0  0  0  0
 12 67  1  0  0  0  0
 12 68  1  0  0  0  0
 13 69  1  0  0  0  0
 19 70  1  0  0  0  0
 20 71  1  0  0  0  0
 20 72  1  0  0  0  0
 27 73  1  0  0  0  0
 22 74  1  0  0  0  0
 26 75  1  0  0  0  0
 23 76  1  0  0  0  0
 24 77  1  0  0  0  0
 25 78  1  0  0  0  0
 30 79  1  0  0  0  0
 31 80  1  0  0  0  0
 31 81  1  0  0  0  0
 40 82  1  0  0  0  0
 32 83  1  0  0  0  0
 32 84  1  0  0  0  0
 36 85  1  0  0  0  0
 36 86  1  0  0  0  0
 36 87  1  0  0  0  0
 37 88  1  0  0  0  0
 37 89  1  0  0  0  0
 37 90  1  0  0  0  0
 38 91  1  0  0  0  0
 38 92  1  0  0  0  0
 38 93  1  0  0  0  0
 44 94  1  0  0  0  0
 44 95  1  0  0  0  0
 46 96  1  0  0  0  0
 50 97  1  0  0  0  0
 47 98  1  0  0  0  0
 48 99  1  0  0  0  0
 49100  1  0  0  0  0
M  END
> <OPENEYE_ISO_SMILES>
CCOC(=O)CC[C@H](C[C@@H]1CCNC1=O)NC(=O)[C@H](Cc2ccccc2)NC(=O)[C@H](CCC(=O)OC(C)(C)C)NC(=O)OCc3ccccc3

> <OPENEYE_INCHI>
InChI=1S/C37H50N4O9/c1-5-48-31(42)18-16-28(23-27-20-21-38-33(27)44)39-35(46)30(22-25-12-8-6-9-13-25)40-34(45)29(17-19-32(43)50-37(2,3)4)41-36(47)49-24-26-14-10-7-11-15-26/h6-15,27-30H,5,16-24H2,1-4H3,(H,38,44)(H,39,46)(H,40,45)(H,41,47)/t27-,28+,29-,30-/m0/s1

> <OPENEYE_INCHIKEY>
MMMLJIROCXIHMV-XJYHXZFBSA-N

> <FORMULA>
C37H50N4O9

$$$$
