UJ4
  -OEChem-02242320043D

 65 67  0     1  0  0  0  0  0999 V2000
   -2.3170    1.2510    0.1300 N   0  0  0  0  0  0  0  0  0  0  0  0
   -1.1330    1.0490   -0.4820 C   0  0  0  0  0  0  0  0  0  0  0  0
   -3.3490    0.3150   -0.0150 C   0  0  0  0  0  0  0  0  0  0  0  0
   -4.3080    0.1790    0.9810 C   0  0  0  0  0  0  0  0  0  0  0  0
   -4.2380    1.0380    2.2170 C   0  0  0  0  0  0  0  0  0  0  0  0
   -5.3250   -0.7440    0.8380 C   0  0  0  0  0  0  0  0  0  0  0  0
   -6.4010   -3.2180   -1.6410 C   0  0  0  0  0  0  0  0  0  0  0  0
    0.3560    2.0250    1.2160 C   0  0  0  0  0  0  0  0  0  0  0  0
    0.9650    1.9820    3.8660 C   0  0  0  0  0  0  0  0  0  0  0  0
    0.7690    3.2010    1.8240 C   0  0  0  0  0  0  0  0  0  0  0  0
    2.0560   -1.9990   -0.9310 C   0  0  0  0  0  0  0  0  0  0  0  0
    3.1140   -1.9850   -0.0400 C   0  0  0  0  0  0  0  0  0  0  0  0
    3.5290   -0.7930    0.5250 C   0  0  0  0  0  0  0  0  0  0  0  0
    3.8150   -3.2700    0.3150 C   0  0  2  0  0  0  0  0  0  0  0  0
    6.0520   -4.1210    0.1870 C   0  0  0  0  0  0  0  0  0  0  0  0
   -0.9870    0.0980   -1.2210 O   0  0  0  0  0  0  0  0  0  0  0  0
   -3.4180   -0.4720   -1.1560 C   0  0  0  0  0  0  0  0  0  0  0  0
   -4.4360   -1.3940   -1.2980 C   0  0  0  0  0  0  0  0  0  0  0  0
   -5.3900   -1.5340   -0.3010 C   0  0  0  0  0  0  0  0  0  0  0  0
   -6.3920   -2.4430   -0.4410 O   0  0  0  0  0  0  0  0  0  0  0  0
    0.0080    2.0050   -0.2500 C   0  0  1  0  0  0  0  0  0  0  0  0
    1.0780    3.1730    3.1750 C   0  0  0  0  0  0  0  0  0  0  0  0
    0.5750    0.8810    3.2550 N   0  0  0  0  0  0  0  0  0  0  0  0
    0.2720    0.8710    1.9710 C   0  0  0  0  0  0  0  0  0  0  0  0
    1.1750    1.5690   -1.0220 N   0  0  0  0  0  0  0  0  0  0  0  0
    1.6200    2.3190   -2.0500 C   0  0  0  0  0  0  0  0  0  0  0  0
    1.0480    3.3470   -2.3440 O   0  0  0  0  0  0  0  0  0  0  0  0
    2.8290    1.8790   -2.8350 C   0  0  0  0  0  0  0  0  0  0  0  0
    3.2290    2.9820   -3.8170 C   0  0  0  0  0  0  0  0  0  0  0  0
    1.8260    0.3760   -0.6930 C   0  0  0  0  0  0  0  0  0  0  0  0
    2.8880    0.3870    0.2010 C   0  0  0  0  0  0  0  0  0  0  0  0
    1.4150   -0.8220   -1.2630 C   0  0  0  0  0  0  0  0  0  0  0  0
    3.2140   -3.8400    1.6020 C   0  0  0  0  0  0  0  0  0  0  0  0
    5.2070   -3.0150    0.5120 O   0  0  0  0  0  0  0  0  0  0  0  0
   -2.4520    2.0430    0.6740 H   0  0  0  0  0  0  0  0  0  0  0  0
   -4.8020    1.9560    2.0540 H   0  0  0  0  0  0  0  0  0  0  0  0
   -4.6640    0.4950    3.0610 H   0  0  0  0  0  0  0  0  0  0  0  0
   -3.1970    1.2830    2.4310 H   0  0  0  0  0  0  0  0  0  0  0  0
   -6.0700   -0.8500    1.6120 H   0  0  0  0  0  0  0  0  0  0  0  0
   -6.4840   -2.5550   -2.5020 H   0  0  0  0  0  0  0  0  0  0  0  0
   -5.4760   -3.7900   -1.7110 H   0  0  0  0  0  0  0  0  0  0  0  0
   -7.2500   -3.9020   -1.6260 H   0  0  0  0  0  0  0  0  0  0  0  0
    1.2050    1.9510    4.9190 H   0  0  0  0  0  0  0  0  0  0  0  0
    0.8490    4.1170    1.2570 H   0  0  0  0  0  0  0  0  0  0  0  0
    1.7340   -2.9310   -1.3710 H   0  0  0  0  0  0  0  0  0  0  0  0
    4.3550   -0.7850    1.2210 H   0  0  0  0  0  0  0  0  0  0  0  0
    3.6880   -3.9890   -0.4940 H   0  0  0  0  0  0  0  0  0  0  0  0
    7.0920   -3.8470    0.3630 H   0  0  0  0  0  0  0  0  0  0  0  0
    5.7900   -4.9750    0.8120 H   0  0  0  0  0  0  0  0  0  0  0  0
    5.9180   -4.3840   -0.8620 H   0  0  0  0  0  0  0  0  0  0  0  0
   -2.6760   -0.3630   -1.9330 H   0  0  0  0  0  0  0  0  0  0  0  0
   -4.4900   -2.0070   -2.1860 H   0  0  0  0  0  0  0  0  0  0  0  0
   -0.2850    3.0050   -0.5680 H   0  0  0  0  0  0  0  0  0  0  0  0
    1.4030    4.0700    3.6800 H   0  0  0  0  0  0  0  0  0  0  0  0
   -0.0440   -0.0500    1.5050 H   0  0  0  0  0  0  0  0  0  0  0  0
    3.6550    1.6840   -2.1510 H   0  0  0  0  0  0  0  0  0  0  0  0
    2.5930    0.9690   -3.3870 H   0  0  0  0  0  0  0  0  0  0  0  0
    2.4030    3.1760   -4.5010 H   0  0  0  0  0  0  0  0  0  0  0  0
    3.4660    3.8910   -3.2650 H   0  0  0  0  0  0  0  0  0  0  0  0
    4.1030    2.6640   -4.3840 H   0  0  0  0  0  0  0  0  0  0  0  0
    3.2110    1.3160    0.6470 H   0  0  0  0  0  0  0  0  0  0  0  0
    0.5890   -0.8340   -1.9590 H   0  0  0  0  0  0  0  0  0  0  0  0
    3.3410   -3.1210    2.4110 H   0  0  0  0  0  0  0  0  0  0  0  0
    2.1520   -4.0350    1.4520 H   0  0  0  0  0  0  0  0  0  0  0  0
    3.7210   -4.7700    1.8590 H   0  0  0  0  0  0  0  0  0  0  0  0
  9 23  2  0  0  0  0
  9 22  1  0  0  0  0
 23 24  1  0  0  0  0
 10 22  2  0  0  0  0
  8 24  2  0  0  0  0
  8 10  1  0  0  0  0
  8 21  1  0  0  0  0
 28 29  1  0  0  0  0
 26 27  2  0  0  0  0
  2 16  2  0  0  0  0
 26 28  1  0  0  0  0
 25 26  1  0  0  0  0
 21 25  1  0  0  0  0
  2 21  1  0  0  0  0
 25 30  1  0  0  0  0
  1  2  1  0  0  0  0
 30 32  2  0  0  0  0
 11 32  1  0  0  0  0
 30 31  1  0  0  0  0
 11 12  2  0  0  0  0
  3 17  2  0  0  0  0
 17 18  1  0  0  0  0
  1  3  1  0  0  0  0
  3  4  1  0  0  0  0
 18 19  2  0  0  0  0
 13 31  2  0  0  0  0
  4  5  1  0  0  0  0
  4  6  2  0  0  0  0
  6 19  1  0  0  0  0
 19 20  1  0  0  0  0
 12 13  1  0  0  0  0
 12 14  1  0  0  0  0
 14 33  1  0  0  0  0
  7 20  1  0  0  0  0
 14 34  1  0  0  0  0
 15 34  1  0  0  0  0
  1 35  1  0  0  0  0
  5 36  1  0  0  0  0
  5 37  1  0  0  0  0
  5 38  1  0  0  0  0
  6 39  1  0  0  0  0
  7 40  1  0  0  0  0
  7 41  1  0  0  0  0
  7 42  1  0  0  0  0
  9 43  1  0  0  0  0
 10 44  1  0  0  0  0
 11 45  1  0  0  0  0
 13 46  1  0  0  0  0
 14 47  1  0  0  0  0
 15 48  1  0  0  0  0
 15 49  1  0  0  0  0
 15 50  1  0  0  0  0
 17 51  1  0  0  0  0
 18 52  1  0  0  0  0
 21 53  1  0  0  0  0
 22 54  1  0  0  0  0
 24 55  1  0  0  0  0
 28 56  1  0  0  0  0
 28 57  1  0  0  0  0
 29 58  1  0  0  0  0
 29 59  1  0  0  0  0
 29 60  1  0  0  0  0
 31 61  1  0  0  0  0
 32 62  1  0  0  0  0
 33 63  1  0  0  0  0
 33 64  1  0  0  0  0
 33 65  1  0  0  0  0
M  END
> <OPENEYE_ISO_SMILES>
CCC(=O)N(c1ccc(cc1)[C@H](C)OC)[C@H](c2cccnc2)C(=O)Nc3ccc(cc3C)OC

> <OPENEYE_INCHI>
InChI=1S/C27H31N3O4/c1-6-25(31)30(22-11-9-20(10-12-22)19(3)33-4)26(21-8-7-15-28-17-21)27(32)29-24-14-13-23(34-5)16-18(24)2/h7-17,19,26H,6H2,1-5H3,(H,29,32)/t19-,26+/m0/s1

> <OPENEYE_INCHIKEY>
QDPHPMZTNKBBHJ-AFMDSPMNSA-N

> <FORMULA>
C27H31N3O4

$$$$
