V7G
  -OEChem-02242320043D

 76 80  0     1  0  0  0  0  0999 V2000
    3.6410    0.2930    1.3220 C   0  0  2  0  0  0  0  0  0  0  0  0
    4.8820   -0.4280    0.8620 C   0  0  0  0  0  0  0  0  0  0  0  0
    6.2970   -2.1650    0.6590 C   0  0  0  0  0  0  0  0  0  0  0  0
    6.8340   -3.4590    0.8110 C   0  0  0  0  0  0  0  0  0  0  0  0
    8.0270   -3.7820    0.2400 C   0  0  0  0  0  0  0  0  0  0  0  0
    8.7360   -2.8470   -0.5010 C   0  0  0  0  0  0  0  0  0  0  0  0
    8.2360   -1.5760   -0.6660 C   0  0  0  0  0  0  0  0  0  0  0  0
    7.0160   -1.2270   -0.0890 C   0  0  0  0  0  0  0  0  0  0  0  0
    2.6710    0.4390    0.1470 C   0  0  2  0  0  0  0  0  0  0  0  0
    3.2940    1.3430   -0.9190 C   0  0  0  0  0  0  0  0  0  0  0  0
    2.4070    1.3470   -2.1650 C   0  0  2  0  0  0  0  0  0  0  0  0
    3.1910    1.8810   -3.3860 C   0  0  0  0  0  0  0  0  0  0  0  0
    2.1000    2.6730   -4.1400 C   0  0  0  0  0  0  0  0  0  0  0  0
    1.2640    2.3240   -1.9990 C   0  0  0  0  0  0  0  0  0  0  0  0
    0.2470    0.4090    0.3860 C   0  0  0  0  0  0  0  0  0  0  0  0
   -1.0280    0.9520    0.9770 C   0  0  2  0  0  0  0  0  0  0  0  0
   -0.9160    0.9680    2.5030 C   0  0  0  0  0  0  0  0  0  0  0  0
   -2.1580    1.6340    3.0990 C   0  0  0  0  0  0  0  0  0  0  0  0
   -2.1050    1.5390    4.6250 C   0  0  0  0  0  0  0  0  0  0  0  0
   -2.1980    3.1050    2.6810 C   0  0  0  0  0  0  0  0  0  0  0  0
   -3.4000    0.6110    0.5360 C   0  0  0  0  0  0  0  0  0  0  0  0
   -4.5280   -0.2410    0.1370 C   0  0  0  0  0  0  0  0  0  0  0  0
   -5.8260    0.1550    0.0560 C   0  0  0  0  0  0  0  0  0  0  0  0
   -6.5910   -0.9580   -0.3620 C   0  0  0  0  0  0  0  0  0  0  0  0
   -7.9610   -1.1470   -0.6150 C   0  0  0  0  0  0  0  0  0  0  0  0
  -10.2090   -0.3850   -0.7350 C   0  0  0  0  0  0  0  0  0  0  0  0
   -8.4150   -2.3860   -1.0230 C   0  0  0  0  0  0  0  0  0  0  0  0
   -7.5290   -3.4410   -1.1830 C   0  0  0  0  0  0  0  0  0  0  0  0
   -6.1830   -3.2730   -0.9380 C   0  0  0  0  0  0  0  0  0  0  0  0
   -5.6980   -2.0350   -0.5270 C   0  0  0  0  0  0  0  0  0  0  0  0
    5.1490   -1.6480    1.1380 N   0  0  0  0  0  0  0  0  0  0  0  0
    1.1200    3.0590   -3.1180 N   0  0  0  0  0  0  0  0  0  0  0  0
    1.4180    1.0330    0.6200 N   0  0  0  0  0  0  0  0  0  0  0  0
   -2.1530    0.1020    0.5790 N   0  0  0  0  0  0  0  0  0  0  0  0
   -4.4390   -1.5740   -0.2230 N   0  0  0  0  0  0  0  0  0  0  0  0
    3.9960    1.5880    1.8100 O   0  0  0  0  0  0  0  0  0  0  0  0
    0.5790    2.4290   -1.0030 O   0  0  0  0  0  0  0  0  0  0  0  0
   -8.8330   -0.1170   -0.4590 O   0  0  0  0  0  0  0  0  0  0  0  0
   -3.5920    1.7760    0.8290 O   0  0  0  0  0  0  0  0  0  0  0  0
    0.2180   -0.5910   -0.3010 O   0  0  0  0  0  0  0  0  0  0  0  0
    6.1030    0.2780   -0.0990 S   0  0  0  0  0  0  0  0  0  0  0  0
    3.1630   -0.2770    2.1180 H   0  0  0  0  0  0  0  0  0  0  0  0
    6.2950   -4.2000    1.3850 H   0  0  0  0  0  0  0  0  0  0  0  0
    8.4270   -4.7780    0.3660 H   0  0  0  0  0  0  0  0  0  0  0  0
    9.6820   -3.1170   -0.9470 H   0  0  0  0  0  0  0  0  0  0  0  0
    8.7880   -0.8480   -1.2430 H   0  0  0  0  0  0  0  0  0  0  0  0
    2.4700   -0.5420   -0.2820 H   0  0  0  0  0  0  0  0  0  0  0  0
    3.3780    2.3580   -0.5300 H   0  0  0  0  0  0  0  0  0  0  0  0
    4.2840    0.9700   -1.1780 H   0  0  0  0  0  0  0  0  0  0  0  0
    2.0270    0.3450   -2.3650 H   0  0  0  0  0  0  0  0  0  0  0  0
    4.0030    2.5380   -3.0710 H   0  0  0  0  0  0  0  0  0  0  0  0
    3.5700    1.0610   -3.9960 H   0  0  0  0  0  0  0  0  0  0  0  0
    2.5310    3.5610   -4.6030 H   0  0  0  0  0  0  0  0  0  0  0  0
    1.6310    2.0430   -4.8960 H   0  0  0  0  0  0  0  0  0  0  0  0
   -1.1930    1.9670    0.6150 H   0  0  0  0  0  0  0  0  0  0  0  0
   -0.8400   -0.0550    2.8720 H   0  0  0  0  0  0  0  0  0  0  0  0
   -0.0280    1.5270    2.7970 H   0  0  0  0  0  0  0  0  0  0  0  0
   -3.0520    1.1290    2.7340 H   0  0  0  0  0  0  0  0  0  0  0  0
   -1.2120    2.0450    4.9900 H   0  0  0  0  0  0  0  0  0  0  0  0
   -2.9900    2.0140    5.0490 H   0  0  0  0  0  0  0  0  0  0  0  0
   -2.0770    0.4910    4.9230 H   0  0  0  0  0  0  0  0  0  0  0  0
   -2.2350    3.1730    1.5940 H   0  0  0  0  0  0  0  0  0  0  0  0
   -3.0820    3.5800    3.1050 H   0  0  0  0  0  0  0  0  0  0  0  0
   -1.3040    3.6110    3.0460 H   0  0  0  0  0  0  0  0  0  0  0  0
   -6.2050    1.1430    0.2720 H   0  0  0  0  0  0  0  0  0  0  0  0
  -10.7950    0.5190   -0.5720 H   0  0  0  0  0  0  0  0  0  0  0  0
  -10.3160   -0.7050   -1.7710 H   0  0  0  0  0  0  0  0  0  0  0  0
  -10.5660   -1.1740   -0.0720 H   0  0  0  0  0  0  0  0  0  0  0  0
   -9.4670   -2.5340   -1.2180 H   0  0  0  0  0  0  0  0  0  0  0  0
   -7.8970   -4.4050   -1.5010 H   0  0  0  0  0  0  0  0  0  0  0  0
   -5.5040   -4.1020   -1.0670 H   0  0  0  0  0  0  0  0  0  0  0  0
    0.4520    3.7530   -3.2350 H   0  0  0  0  0  0  0  0  0  0  0  0
    1.4310    1.8750    1.1010 H   0  0  0  0  0  0  0  0  0  0  0  0
   -2.0000   -0.8270    0.3460 H   0  0  0  0  0  0  0  0  0  0  0  0
   -3.6230   -2.0970   -0.2520 H   0  0  0  0  0  0  0  0  0  0  0  0
    4.4270    2.1520    1.1530 H   0  0  0  0  0  0  0  0  0  0  0  0
 14 37  2  0  0  0  0
 14 32  1  0  0  0  0
 13 32  1  0  0  0  0
 11 14  1  0  0  0  0
 12 13  1  0  0  0  0
  1 36  1  0  0  0  0
 11 12  1  0  0  0  0
 10 11  1  0  0  0  0
  9 10  1  0  0  0  0
  1  9  1  0  0  0  0
  1  2  1  0  0  0  0
  9 33  1  0  0  0  0
  2 31  2  0  0  0  0
  2 41  1  0  0  0  0
 15 33  1  0  0  0  0
  3 31  1  0  0  0  0
  8 41  1  0  0  0  0
 21 39  2  0  0  0  0
 15 40  2  0  0  0  0
 15 16  1  0  0  0  0
  3  8  2  0  0  0  0
  3  4  1  0  0  0  0
  7  8  1  0  0  0  0
  4  5  2  0  0  0  0
 21 22  1  0  0  0  0
 21 34  1  0  0  0  0
 22 35  1  0  0  0  0
 30 35  1  0  0  0  0
 16 34  1  0  0  0  0
 16 17  1  0  0  0  0
 22 23  2  0  0  0  0
 29 30  2  0  0  0  0
 28 29  1  0  0  0  0
 24 30  1  0  0  0  0
  6  7  2  0  0  0  0
  5  6  1  0  0  0  0
 17 18  1  0  0  0  0
 23 24  1  0  0  0  0
 27 28  2  0  0  0  0
 18 20  1  0  0  0  0
 24 25  2  0  0  0  0
 18 19  1  0  0  0  0
 25 27  1  0  0  0  0
 25 38  1  0  0  0  0
 26 38  1  0  0  0  0
  1 42  1  0  0  0  0
  4 43  1  0  0  0  0
  5 44  1  0  0  0  0
  6 45  1  0  0  0  0
  7 46  1  0  0  0  0
  9 47  1  0  0  0  0
 10 48  1  0  0  0  0
 10 49  1  0  0  0  0
 11 50  1  0  0  0  0
 12 51  1  0  0  0  0
 12 52  1  0  0  0  0
 13 53  1  0  0  0  0
 13 54  1  0  0  0  0
 16 55  1  0  0  0  0
 17 56  1  0  0  0  0
 17 57  1  0  0  0  0
 18 58  1  0  0  0  0
 19 59  1  0  0  0  0
 19 60  1  0  0  0  0
 19 61  1  0  0  0  0
 20 62  1  0  0  0  0
 20 63  1  0  0  0  0
 20 64  1  0  0  0  0
 23 65  1  0  0  0  0
 26 66  1  0  0  0  0
 26 67  1  0  0  0  0
 26 68  1  0  0  0  0
 27 69  1  0  0  0  0
 28 70  1  0  0  0  0
 29 71  1  0  0  0  0
 32 72  1  0  0  0  0
 33 73  1  0  0  0  0
 34 74  1  0  0  0  0
 35 75  1  0  0  0  0
 36 76  1  0  0  0  0
M  END
> <OPENEYE_ISO_SMILES>
CC(C)C[C@@H](C(=O)N[C@@H](C[C@@H]1CCNC1=O)[C@@H](c2nc3ccccc3s2)O)NC(=O)c4cc5c([nH]4)cccc5OC

> <OPENEYE_INCHI>
InChI=1S/C30H35N5O5S/c1-16(2)13-22(34-29(39)23-15-18-19(32-23)8-6-9-24(18)40-3)28(38)33-21(14-17-11-12-31-27(17)37)26(36)30-35-20-7-4-5-10-25(20)41-30/h4-10,15-17,21-22,26,32,36H,11-14H2,1-3H3,(H,31,37)(H,33,38)(H,34,39)/t17-,21-,22-,26-/m0/s1

> <OPENEYE_INCHIKEY>
DHQWCSDZTRDSRP-XIBGDNMGSA-N

> <FORMULA>
C30H35N5O5S

$$$$
