@<TRIPOS>MOLECULE
/home/pku/3cl/gett_pdb/5SRQ/5SRQ_mol2/ligand/5SRQ_RDU.pdb
 44 48 0 0 0
SMALL
GASTEIGER

@<TRIPOS>ATOM
      1  C18      -44.0710  -29.4090    6.2310 C.ar  201  RDU201      0.1204
      2  C16      -46.3200  -29.2480    6.2980 C.ar  201  RDU201      0.1442
      3  C13      -48.8480  -29.0830    3.5490 C.ar  201  RDU201     -0.0491
      4  C12      -50.2250  -28.9830    3.6890 C.ar  201  RDU201     -0.0257
      5  C11      -50.7530  -28.9440    4.9730 C.ar  201  RDU201      0.1254
      6  C10      -49.9680  -28.9920    6.1110 C.ar  201  RDU201     -0.0025
      7  C20      -43.9600  -30.2630    2.1200 C.3   201  RDU201      0.0427
      8  C02      -47.2860  -30.3130   -0.3350 C.3   201  RDU201      0.0719
      9  C03      -46.0090  -29.6210    0.2400 C.3   201  RDU201      0.0980
     10  C04      -46.2250  -29.3070    1.7920 C.3   201  RDU201      0.0421
     11  C06      -45.1710  -29.3380    4.1510 C.ar  201  RDU201      0.1345
     12  C07      -46.4570  -29.2480    4.8680 C.ar  201  RDU201      0.0663
     13  C08      -47.9430  -29.1420    4.6360 C.ar  201  RDU201      0.0124
     14  C09      -48.5780  -29.0860    5.9300 C.ar  201  RDU201      0.0515
     15  C21      -44.4260  -31.2070    0.9840 C.3   201  RDU201      0.0856
     16  C23      -45.4610  -32.2880    1.4820 C.3   201  RDU201     -0.0222
     17  C24      -44.5340  -33.4280    1.1320 C.3   201  RDU201     -0.0477
     18  C25      -43.5640  -32.4220    0.4830 C.3   201  RDU201     -0.0222
     19  F14      -52.0890  -28.8520    5.0990 F     201  RDU201     -0.2054
     20  N05      -45.0270  -29.3640    2.6750 N.pl3 201  RDU201     -0.3093
     21  N15      -47.5720  -29.1550    6.9060 N.ar  201  RDU201     -0.3389
     22  N17      -45.1570  -29.3280    6.9920 N.ar  201  RDU201     -0.2178
     23  N19      -44.0200  -29.4180    4.8750 N.ar  201  RDU201     -0.2200
     24  O01      -48.2670  -29.3770   -0.5440 O.3   201  RDU201     -0.3924
     25  O22      -45.0180  -30.5210   -0.0260 O.3   201  RDU201     -0.3648
     26 H181      -43.0900  -29.4740    6.7780 H     201  RDU201      0.1048
     27 H131      -48.4830  -29.1220    2.5380 H     201  RDU201      0.0625
     28 H121      -50.8980  -28.9510    2.8130 H     201  RDU201      0.0646
     29 H101      -50.4660  -28.9520    7.0790 H     201  RDU201      0.0667
     30 H201      -43.1360  -29.6900    1.7270 H     201  RDU201      0.0492
     31 H202      -43.4690  -30.8320    2.8910 H     201  RDU201      0.0492
     32 H022      -47.0890  -30.9000   -1.2560 H     201  RDU201      0.0583
     33 H021      -47.6560  -31.0750    0.3980 H     201  RDU201      0.0583
     34 H031      -45.8430  -28.6930   -0.3430 H     201  RDU201      0.0635
     35 H042      -46.9270  -30.0370    2.1500 H     201  RDU201      0.0490
     36 H041      -46.7680  -28.3300    1.8570 H     201  RDU201      0.0490
     37 H231      -46.3900  -32.3290    0.9700 H     201  RDU201      0.0293
     38 H232      -45.7170  -32.1970    2.5530 H     201  RDU201      0.0293
     39 H241      -44.1550  -34.0140    1.9800 H     201  RDU201      0.0267
     40 H242      -44.9670  -34.2000    0.4700 H     201  RDU201      0.0267
     41 H251      -42.5630  -32.5210    0.8500 H     201  RDU201      0.0293
     42 H252      -43.4720  -32.5520   -0.5980 H     201  RDU201      0.0293
     43 H151      -47.7350  -29.1380    7.8900 H     201  RDU201      0.1673
     44 H011      -49.0270  -29.8250   -0.8830 H     201  RDU201      0.2095
@<TRIPOS>BOND
     1    32     8    1
     2    44    24    1
     3    42    18    1
     4    24     8    1
     5    34     9    1
     6     8     9    1
     7     8    33    1
     8    25     9    1
     9    25    15    1
    10     9    10    1
    11    40    17    1
    12    18    41    1
    13    18    15    1
    14    18    17    1
    15    37    16    1
    16    15    16    1
    17    15     7    1
    18    17    16    1
    19    17    39    1
    20    16    38    1
    21    30     7    1
    22    10    36    1
    23    10    35    1
    24    10    20    1
    25     7    20    1
    26     7    31    1
    27    27     3    1
    28    20    11    1
    29    28     4    1
    30     3     4   ar
    31     3    13   ar
    32     4     5   ar
    33    11    12   ar
    34    11    23   ar
    35    13    12   ar
    36    13    14   ar
    37    12     2   ar
    38    23     1   ar
    39     5    19    1
    40     5     6   ar
    41    14     6   ar
    42    14    21   ar
    43     6    29    1
    44     1    26    1
    45     1    22   ar
    46     2    21   ar
    47     2    22   ar
    48    21    43    1
