@<TRIPOS>MOLECULE
/home/pku/3cl/gett_pdb/7FRD/7FRD_mol2/ligand/7FRD_WY6.pdb
 47 49 0 0 0
SMALL
GASTEIGER

@<TRIPOS>ATOM
      1  C18      -46.6570  -28.8970    4.6510 C.3   201  WY6201      0.2761
      2  C17      -45.4300  -28.9790    3.9430 C.2   201  WY6201      0.3270
      3  C15      -44.1200  -28.7490    1.8200 C.3   201  WY6201      0.0962
      4  C14      -41.5710  -31.2850    0.3940 C.3   201  WY6201     -0.0635
      5  C13      -42.4320  -30.0360    0.5160 C.3   201  WY6201     -0.0339
      6  C12      -43.5730  -30.1560    1.5180 C.3   201  WY6201      0.0586
      7  C10      -46.4320  -35.1840   -1.2420 C.ar  201  WY6201     -0.0586
      8  C20      -48.6780  -28.7160    5.3940 C.3   201  WY6201      0.2538
      9  C02      -44.9710  -32.2300    1.6960 C.2   201  WY6201      0.2137
     10  C03      -46.1710  -33.0610    1.2570 C.3   201  WY6201      0.0279
     11  C04      -46.5500  -32.9270   -0.2030 C.3   201  WY6201     -0.0194
     12  C05      -45.8090  -33.9790   -0.9920 C.ar  201  WY6201     -0.0469
     13  C06      -44.5260  -33.7380   -1.4370 C.ar  201  WY6201     -0.0586
     14  C07      -43.8640  -34.7120   -2.1530 C.ar  201  WY6201     -0.0615
     15  C08      -44.4850  -35.9170   -2.4080 C.ar  201  WY6201     -0.0617
     16  C09      -45.7680  -36.1560   -1.9590 C.ar  201  WY6201     -0.0615
     17  C22      -46.6210  -29.0210    6.0060 C.2   201  WY6201      0.3772
     18  C24      -44.3370  -29.2830    5.9300 C.2   201  WY6201      0.3381
     19  N11      -44.6860  -30.9620    1.0490 N.am  201  WY6201     -0.3089
     20  N16      -45.3890  -28.8290    2.5110 N.pl3 201  WY6201     -0.2333
     21  N19      -47.9400  -28.7000    4.2890 N.3   201  WY6201     -0.2416
     22  N21      -47.8870  -28.9000    6.4570 N.2   201  WY6201     -0.0538
     23  N23      -45.4430  -29.2220    6.6330 N.2   201  WY6201      0.0009
     24  N25      -44.3160  -29.1630    4.6150 N.2   201  WY6201     -0.0049
     25  O01      -44.2730  -32.6530    2.5620 O.2   201  WY6201     -0.2758
     26 H152      -44.2590  -28.2450    1.0010 H     201  WY6201      0.0743
     27 H151      -43.5000  -28.2530    2.3860 H     201  WY6201      0.0743
     28 H142      -40.9130  -31.1390   -0.3060 H     201  WY6201      0.0230
     29 H143      -42.1310  -32.0360    0.1650 H     201  WY6201      0.0230
     30 H141      -41.1230  -31.4460    1.2340 H     201  WY6201      0.0230
     31 H131      -42.8060  -29.8310   -0.3500 H     201  WY6201      0.0282
     32 H132      -41.8700  -29.3000    0.7980 H     201  WY6201      0.0282
     33 H121      -43.2430  -30.5450    2.3390 H     201  WY6201      0.0535
     34 H101      -47.2930  -35.3360   -0.9330 H     201  WY6201      0.0620
     35 H201      -49.5850  -28.6370    5.4090 H     201  WY6201      0.1067
     36 H031      -45.9780  -33.9980    1.4310 H     201  WY6201      0.0361
     37 H032      -46.9260  -32.8090    1.7930 H     201  WY6201      0.0361
     38 H042      -47.5020  -33.0840   -0.3020 H     201  WY6201      0.0318
     39 H041      -46.3180  -32.0600   -0.5350 H     201  WY6201      0.0318
     40 H061      -44.1150  -32.9250   -1.2590 H     201  WY6201      0.0620
     41 H071      -43.0050  -34.5600   -2.4580 H     201  WY6201      0.0618
     42 H081      -44.0390  -36.5690   -2.8880 H     201  WY6201      0.0618
     43 H091      -46.1720  -36.9700   -2.1360 H     201  WY6201      0.0618
     44 H241      -43.5450  -29.4150    6.3690 H     201  WY6201      0.1668
     45 H111      -45.2170  -30.6710    0.4250 H     201  WY6201      0.1491
     46 H161      -46.1320  -28.7480    2.0710 H     201  WY6201      0.2911
     47 H191      -48.2210  -28.5990    3.4920 H     201  WY6201      0.1278
@<TRIPOS>BOND
     1    42    15    1
     2    41    14    1
     3    15    14   ar
     4    15    16   ar
     5    14    13   ar
     6    43    16    1
     7    16     7   ar
     8    13    40    1
     9    13    12   ar
    10     7    12   ar
    11     7    34    1
    12    12    11    1
    13    39    11    1
    14    31     5    1
    15    28     4    1
    16    38    11    1
    17    11    10    1
    18    29     4    1
    19     4     5    1
    20     4    30    1
    21    45    19    1
    22     5    32    1
    23     5     6    1
    24    26     3    1
    25    19     6    1
    26    19     9   am
    27    10    36    1
    28    10     9    1
    29    10    37    1
    30     6     3    1
    31     6    33    1
    32     9    25    2
    33     3    27    1
    34     3    20    1
    35    46    20    1
    36    20     2    1
    37    47    21    1
    38     2    24    2
    39     2     1    1
    40    21     1    1
    41    21     8    1
    42    24    18    1
    43     1    17    1
    44     8    35    1
    45     8    22    1
    46    18    44    1
    47    18    23    2
    48    17    22    2
    49    17    23    1
