@<TRIPOS>MOLECULE
/home/pku/3cl/gett_pdb/7TIY/7TIY_mol2/ligand/7TIY_Y48.pdb
 32 33 0 0 0
SMALL
GASTEIGER

@<TRIPOS>ATOM
      1  C14        6.7740    1.2420   25.7820 C.3   401  Y48401      0.0022
      2  C13        7.5210    1.5580   24.4850 C.3   401  Y48401      0.0312
      3  C12        7.2650    0.4470   23.4740 C.3   401  Y48401      0.1761
      4  C15        7.1320    2.3010   26.8230 C.3   401  Y48401      0.0001
      5  C16        5.2760    1.2880   25.5270 C.3   401  Y48401      0.0001
      6  C17        7.9900    0.8550   22.1950 C.2   401  Y48401      0.2617
      7  C1         8.4830   -5.3840   24.1930 C.ar  401  Y48401      0.0512
      8  C2         8.5130   -6.7050   23.7420 C.ar  401  Y48401      0.1420
      9  C3         9.0170   -7.7100   24.5600 C.ar  401  Y48401      0.0614
     10  C7         7.9380   -4.2580   23.3130 C.3   401  Y48401      0.2391
     11  C6         8.9560   -5.0750   25.4620 C.ar  401  Y48401      0.0335
     12  C9         7.7200   -1.9420   23.3200 C.2   401  Y48401      0.4218
     13  C5         9.4590   -6.0780   26.2780 C.ar  401  Y48401      0.1673
     14  C4         9.4910   -7.3930   25.8310 C.ar  401  Y48401      0.1696
     15  C20        7.9940    1.8110   19.9930 C.3   401  Y48401      0.1601
     16  C21        7.7450    3.3050   19.7690 C.2   401  Y48401      0.2287
     17  C24        7.4950    1.0240   18.7760 C.3   401  Y48401      0.0389
     18  C25        8.0930   -0.4270   18.7890 C.3   401  Y48401      0.0821
     19  C26        9.5810   -0.3630   18.7550 C.3   401  Y48401      0.0326
     20  C27        9.9400   -1.5810   17.8590 C.3   401  Y48401      0.1156
     21  C29        7.6360   -1.1760   17.5700 C.2   401  Y48401      0.2410
     22  F1         9.9160   -5.7710   27.5070 F     401  Y48401     -0.2018
     23  F2         8.0560   -7.0200   22.5110 F     401  Y48401     -0.2043
     24  F3         9.9830   -8.3560   26.6370 F     401  Y48401     -0.2017
     25  N11        7.8100   -0.7890   23.9860 N.am  401  Y48401     -0.1611
     26  N19        7.2980    1.4010   21.2030 N.am  401  Y48401     -0.1977
     27  N28        8.6610   -1.8410   17.0290 N.am  401  Y48401     -0.2054
     28  O10        7.1910   -1.9990   22.2340 O.2   401  Y48401     -0.2245
     29  O18        9.1770    0.6950   22.1060 O.2   401  Y48401     -0.2715
     30  O22        8.3200    3.8490   18.8520 O.2   401  Y48401     -0.2864
     31  O30        6.5230   -1.1870   17.1350 O.2   401  Y48401     -0.2734
     32  O8         8.2450   -3.0200   23.8830 O.3   401  Y48401     -0.4285
@<TRIPOS>BOND
     1    27    21   am
     2    27    20    1
     3    31    21    2
     4    21    18    1
     5    20    19    1
     6    19    18    1
     7    17    18    1
     8    17    15    1
     9    30    16    2
    10    16    15    1
    11    15    26    1
    12    26     6   am
    13    29     6    2
    14     6     3    1
    15    28    12    2
    16    23     8    1
    17    10    32    1
    18    10     7    1
    19    12    32    1
    20    12    25   am
    21     3    25    1
    22     3     2    1
    23     8     7   ar
    24     8     9   ar
    25     7    11   ar
    26     2     1    1
    27     9    14   ar
    28    11    13   ar
    29     5     1    1
    30     1     4    1
    31    14    13   ar
    32    14    24    1
    33    13    22    1
