WRD
  -OEChem-02242320043D

 25 26  0     1  0  0  0  0  0999 V2000
   -2.4980    1.5350    0.5310 N   0  0  0  0  0  0  0  0  0  0  0  0
    1.5480    2.0310   -0.1490 C   0  0  0  0  0  0  0  0  0  0  0  0
    2.3730    0.9320   -0.0020 C   0  0  0  0  0  0  0  0  0  0  0  0
    1.8210   -0.3360    0.0650 C   0  0  0  0  0  0  0  0  0  0  0  0
    0.4410   -0.5100   -0.0170 C   0  0  0  0  0  0  0  0  0  0  0  0
   -0.0950   -1.9150    0.0690 C   0  0  0  0  0  0  0  0  0  0  0  0
   -2.3470   -0.8870    0.2400 C   0  0  0  0  0  0  0  0  0  0  0  0
   -1.8750    0.4730   -0.2710 C   0  0  2  0  0  0  0  0  0  0  0  0
   -0.3760    0.5870   -0.1660 C   0  0  0  0  0  0  0  0  0  0  0  0
    0.1820    1.8580   -0.2300 C   0  0  0  0  0  0  0  0  0  0  0  0
    2.6310   -1.4170    0.2110 O   0  0  0  0  0  0  0  0  0  0  0  0
   -1.5270   -1.9770   -0.4590 C   0  0  0  0  0  0  0  0  0  0  0  0
   -2.2030    2.4470    0.2160 H   0  0  0  0  0  0  0  0  0  0  0  0
   -3.5040    1.4550    0.5180 H   0  0  0  0  0  0  0  0  0  0  0  0
    1.9720    3.0240   -0.1960 H   0  0  0  0  0  0  0  0  0  0  0  0
    3.4430    1.0620    0.0600 H   0  0  0  0  0  0  0  0  0  0  0  0
    0.5360   -2.5770   -0.5240 H   0  0  0  0  0  0  0  0  0  0  0  0
   -0.0810   -2.2420    1.1090 H   0  0  0  0  0  0  0  0  0  0  0  0
   -2.1960   -0.9470    1.3180 H   0  0  0  0  0  0  0  0  0  0  0  0
   -3.4050   -1.0180    0.0100 H   0  0  0  0  0  0  0  0  0  0  0  0
   -2.1720    0.5890   -1.3130 H   0  0  0  0  0  0  0  0  0  0  0  0
   -0.4610    2.7190   -0.3400 H   0  0  0  0  0  0  0  0  0  0  0  0
    2.8040   -1.6570    1.1320 H   0  0  0  0  0  0  0  0  0  0  0  0
   -1.5290   -1.8050   -1.5350 H   0  0  0  0  0  0  0  0  0  0  0  0
   -1.9560   -2.9550   -0.2420 H   0  0  0  0  0  0  0  0  0  0  0  0
  4 11  1  0  0  0  0
  3  4  2  0  0  0  0
  2  3  1  0  0  0  0
  4  5  1  0  0  0  0
  2 10  2  0  0  0  0
  5  6  1  0  0  0  0
  5  9  2  0  0  0  0
  9 10  1  0  0  0  0
  6 12  1  0  0  0  0
  8  9  1  0  0  0  0
  1  8  1  0  0  0  0
  7  8  1  0  0  0  0
  7 12  1  0  0  0  0
  1 13  1  0  0  0  0
  1 14  1  0  0  0  0
  2 15  1  0  0  0  0
  3 16  1  0  0  0  0
  6 17  1  0  0  0  0
  6 18  1  0  0  0  0
  7 19  1  0  0  0  0
  7 20  1  0  0  0  0
  8 21  1  0  0  0  0
 10 22  1  0  0  0  0
 11 23  1  0  0  0  0
 12 24  1  0  0  0  0
 12 25  1  0  0  0  0
M  END
> <OPENEYE_ISO_SMILES>
c1cc2c(c(c1)O)CCC[C@H]2N

> <OPENEYE_INCHI>
InChI=1S/C10H13NO/c11-9-5-1-4-8-7(9)3-2-6-10(8)12/h2-3,6,9,12H,1,4-5,11H2/t9-/m1/s1

> <OPENEYE_INCHIKEY>
JGBIMURCUPHILK-SECBINFHSA-N

> <FORMULA>
C10H13NO

$$$$
