VVJ
  -OEChem-02242320043D

 32 32  0     1  0  0  0  0  0999 V2000
   -0.8050   -0.2710   -0.5440 N   0  0  3  0  0  0  0  0  0  0  0  0
    2.5630   -1.2210    0.8700 C   0  0  0  0  0  0  0  0  0  0  0  0
    3.5670   -0.6710   -0.1060 C   0  0  0  0  0  0  0  0  0  0  0  0
    3.7080    0.8600   -0.0080 C   0  0  0  0  0  0  0  0  0  0  0  0
    2.3540    1.5750    0.1580 C   0  0  0  0  0  0  0  0  0  0  0  0
    1.2830    0.9920   -0.7240 C   0  0  0  0  0  0  0  0  0  0  0  0
   -0.8830   -0.7400   -1.9300 C   0  0  0  0  0  0  0  0  0  0  0  0
    0.5010   -0.0620    0.0860 C   0  0  0  0  0  0  0  0  0  0  0  0
    1.2000   -1.3370    0.1570 C   0  0  0  0  0  0  0  0  0  0  0  0
   -2.1930    0.0280    0.3090 S   0  0  0  0  0  0  0  0  0  0  0  0
   -3.1640   -0.8150   -0.2960 O   0  0  0  0  0  0  0  0  0  0  0  0
   -1.8150   -0.1480    1.6670 O   0  0  0  0  0  0  0  0  0  0  0  0
   -2.5640    1.7710   -0.0280 C   0  0  0  0  0  0  0  0  0  0  0  0
    2.8840   -2.2060    1.2090 H   0  0  0  0  0  0  0  0  0  0  0  0
    2.4740   -0.5500    1.7240 H   0  0  0  0  0  0  0  0  0  0  0  0
    4.5370   -1.1280    0.0910 H   0  0  0  0  0  0  0  0  0  0  0  0
    3.2550   -0.9310   -1.1180 H   0  0  0  0  0  0  0  0  0  0  0  0
    4.3400    1.1000    0.8470 H   0  0  0  0  0  0  0  0  0  0  0  0
    4.1890    1.2270   -0.9140 H   0  0  0  0  0  0  0  0  0  0  0  0
    2.0370    1.4930    1.1980 H   0  0  0  0  0  0  0  0  0  0  0  0
    2.4790    2.6290   -0.0900 H   0  0  0  0  0  0  0  0  0  0  0  0
    0.6050    1.7820   -1.0470 H   0  0  0  0  0  0  0  0  0  0  0  0
    1.7410    0.5210   -1.5930 H   0  0  0  0  0  0  0  0  0  0  0  0
   -0.8950    0.1170   -2.6030 H   0  0  0  0  0  0  0  0  0  0  0  0
   -0.0180   -1.3640   -2.1520 H   0  0  0  0  0  0  0  0  0  0  0  0
   -1.7950   -1.3210   -2.0660 H   0  0  0  0  0  0  0  0  0  0  0  0
    0.3480    0.3120    1.0980 H   0  0  0  0  0  0  0  0  0  0  0  0
    1.3610   -1.7080   -0.8550 H   0  0  0  0  0  0  0  0  0  0  0  0
    0.5780   -2.0500    0.6990 H   0  0  0  0  0  0  0  0  0  0  0  0
   -2.7060    1.9120   -1.0990 H   0  0  0  0  0  0  0  0  0  0  0  0
   -3.4730    2.0570    0.5000 H   0  0  0  0  0  0  0  0  0  0  0  0
   -1.7350    2.3910    0.3130 H   0  0  0  0  0  0  0  0  0  0  0  0
  5  6  1  0  0  0  0
  6  8  1  0  0  0  0
  4  5  1  0  0  0  0
 10 11  2  0  0  0  0
  1  7  1  0  0  0  0
  3  4  1  0  0  0  0
 10 13  1  0  0  0  0
  1 10  1  0  0  0  0
  1  8  1  0  0  0  0
 10 12  2  0  0  0  0
  8  9  1  0  0  0  0
  2  3  1  0  0  0  0
  2  9  1  0  0  0  0
  2 14  1  0  0  0  0
  2 15  1  0  0  0  0
  3 16  1  0  0  0  0
  3 17  1  0  0  0  0
  4 18  1  0  0  0  0
  4 19  1  0  0  0  0
  5 20  1  0  0  0  0
  5 21  1  0  0  0  0
  6 22  1  0  0  0  0
  6 23  1  0  0  0  0
  7 24  1  0  0  0  0
  7 25  1  0  0  0  0
  7 26  1  0  0  0  0
  8 27  1  0  0  0  0
  9 28  1  0  0  0  0
  9 29  1  0  0  0  0
 13 30  1  0  0  0  0
 13 31  1  0  0  0  0
 13 32  1  0  0  0  0
M  END
> <OPENEYE_ISO_SMILES>
CN(C1CCCCCC1)S(=O)(=O)C

> <OPENEYE_INCHI>
InChI=1S/C9H19NO2S/c1-10(13(2,11)12)9-7-5-3-4-6-8-9/h9H,3-8H2,1-2H3

> <OPENEYE_INCHIKEY>
UXPPTRFZLSZETL-UHFFFAOYSA-N

> <FORMULA>
C9H19NO2S

$$$$
