@<TRIPOS>MOLECULE
/home/pku/3cl/gett_pdb/8BZV/8BZV_mol2/ligand/8BZV_ADN.pdb
 64 20 0 0 0
SMALL
GASTEIGER

@<TRIPOS>ATOM
      1  O5'       84.8000  -16.3790    5.1120 O.3   7201  ADN7201    -0.4105
      2  O5'       85.7360  -17.4720    3.1150 O.3   7201  ADN7201    -0.2528
      3  C5'       84.3960  -16.7080    3.7810 C.3   7201  ADN7201    -0.0309
      4  C5'       84.6120  -16.6970    3.5480 C.3   7201  ADN7201    -0.0309
      5  C4'       84.3560  -15.5030    2.8520 C.3   7201  ADN7201     0.0000
      6  C4'       84.5040  -15.3850    2.7950 C.3   7201  ADN7201    -0.0309
      7  O4'       83.0640  -14.8790    3.0370 O.3   7201  ADN7201     0.0000
      8  O4'       83.1960  -14.8390    3.0640 O.3   7201  ADN7201     0.0000
      9  C3'       85.3850  -14.4170    3.2350 C.3   7201  ADN7201     0.0000
     10  C3'       85.4850  -14.3300    3.3450 C.3   7201  ADN7201    -0.0309
     11  O3'       86.0780  -14.0550    2.0340 O.3   7201  ADN7201     0.0000
     12  O3'       86.2880  -13.8950    2.2480 O.3   7201  ADN7201    -0.2528
     13  C2'       84.5100  -13.2280    3.6680 C.3   7201  ADN7201     0.0000
     14  C2'       84.5740  -13.1590    3.7660 C.3   7201  ADN7201    -0.0309
     15  O2'       85.0630  -11.9780    3.2850 O.3   7201  ADN7201     0.0000
     16  O2'       85.1080  -11.9000    3.3860 O.3   7201  ADN7201    -0.2528
     17  C1'       83.2350  -13.4990    2.8890 C.3   7201  ADN7201    -0.0309
     18  C1'       83.3090  -13.4490    2.9730 C.3   7201  ADN7201     0.0000
     19  N9        82.0740  -12.8570    3.5110 N.3   7201  ADN7201    -0.1314
     20  N9        82.1310  -12.8500    3.6090 N.3   7201  ADN7201     0.0000
     21  C8        81.6100  -13.0240    4.7890 C.3   7201  ADN7201     0.0000
     22  C8        81.6940  -13.0190    4.8970 C.3   7201  ADN7201    -0.0309
     23  N7        80.5580  -12.2910    5.0780 N.1   7201  ADN7201    -0.1795
     24  N7        80.6260  -12.3130    5.1970 N.3   7201  ADN7201     0.0000
     25  C5        80.3180  -11.5830    3.9110 C.3   7201  ADN7201     0.0220
     26  C5        80.3480  -11.6190    4.0310 C.1   7201  ADN7201     0.1795
     27  C6        79.3440  -10.6260    3.5560 C.1   7201  ADN7201     0.1795
     28  C6        79.3440  -10.6900    3.6850 C.3   7201  ADN7201     0.0000
     29  N6        78.3780  -10.1930    4.3770 N.3   7201  ADN7201    -0.1629
     30  N6        78.3770  -10.2810    4.5170 N.3   7201  ADN7201    -0.1629
     31  N1        79.3850  -10.1250    2.3030 N.3   7201  ADN7201     0.0000
     32  N1        79.3540  -10.1910    2.4290 N.1   7201  ADN7201    -0.1795
     33  C2        80.3450  -10.5460    1.4750 C.3   7201  ADN7201    -0.0309
     34  C2        80.3130  -10.5910    1.5890 C.3   7201  ADN7201     0.0000
     35  N3        81.3160  -11.4320    1.6940 N.3   7201  ADN7201     0.0000
     36  N3        81.3110  -11.4480    1.8000 N.1   7201  ADN7201    -0.1795
     37  C4        81.2430  -11.9260    2.9350 C.1   7201  ADN7201     0.1795
     38  C4        81.2700  -11.9390    3.0440 C.3   7201  ADN7201     0.1094
     39 HO5'       84.1150  -16.4730    5.6070 H     7201  ADN7201     0.2052
     40 HO5'       85.4910  -18.2900    3.1440 H     7201  ADN7201     0.2528
     41 H5'1       83.5090  -17.1000    3.8150 H     7201  ADN7201     0.0000
     42 H5'1       84.7070  -16.5080    4.4950 H     7201  ADN7201     0.2052
     43 H5'2       85.0210  -17.3550    3.4190 H     7201  ADN7201     0.0309
     44 H5'2       83.8020  -17.2100    3.4010 H     7201  ADN7201     0.0309
     45  H4'       84.4760  -15.7660    1.9260 H     7201  ADN7201     0.0309
     46  H4'       84.6170  -15.5140    1.8400 H     7201  ADN7201     0.0000
     47  H3'       85.9690  -14.7000    3.9550 H     7201  ADN7201     0.0309
     48  H3'       85.9920  -14.6650    4.1010 H     7201  ADN7201     0.0000
     49 HO3'       86.4610  -13.3120    2.1810 H     7201  ADN7201     0.2528
     50 HO3'       86.4650  -13.0760    2.3920 H     7201  ADN7201     0.0000
     51  H2'       84.3340  -13.2640    4.6220 H     7201  ADN7201     0.0309
     52  H2'       84.3850  -13.2020    4.7170 H     7201  ADN7201     0.0000
     53 HO2'       84.6920  -11.3810    3.7640 H     7201  ADN7201     0.2528
     54 HO2'       84.6710  -11.3060    3.8080 H     7201  ADN7201     0.0000
     55  H1'       83.3120  -13.2460    1.9560 H     7201  ADN7201     0.0000
     56  H1'       83.3700  -13.1700    2.0470 H     7201  ADN7201     0.0309
     57  H8        82.0050  -13.6060    5.3990 H     7201  ADN7201     0.0309
     58  H8        82.1160  -13.5820    5.5050 H     7201  ADN7201     0.0000
     59 HN61       77.7820   -9.6460    4.0860 H     7201  ADN7201     0.0000
     60 HN61       77.7900   -9.7130    4.2480 H     7201  ADN7201     0.1629
     61 HN62       78.3520  -10.4620    5.1930 H     7201  ADN7201     0.1629
     62 HN62       78.3390  -10.5890    5.3180 H     7201  ADN7201     0.0000
     63  H2        80.3340  -10.1680    0.6250 H     7201  ADN7201     0.0000
     64  H2        80.2790  -10.2180    0.7370 H     7201  ADN7201     0.0309
@<TRIPOS>BOND
     1    64    33    1
     2    36    37    3
     3    45     6    1
     4    56    17    1
     5    49    12    1
     6    32    27    3
     7    38    19    1
     8    38    25    1
     9     2    40    1
    10    10    47    1
    11    16    53    1
    12    44     3    1
    13    43     4    1
    14    14    51    1
    15    26    23    3
    16    60    29    1
    17    42     1    1
    18    30    61    1
    19    22    57    1
    20     1    39    1
