@<TRIPOS>MOLECULE
/home/pku/3cl/gett_pdb/7TX5/7TX5_mol2/ligand/7TX5_APR.pdb
 64 56 0 0 0
SMALL
GASTEIGER

@<TRIPOS>ATOM
      1  N1        13.4410   13.8850   10.8620 N.2   201  APR201     -0.2558
      2  C2        13.4370   13.4430    9.6100 C.2   201  APR201      0.1034
      3  N3        14.4800   13.6060    8.7980 N.pl3 201  APR201     -0.1841
      4  C4        15.5790   14.2300    9.3060 C.ar  201  APR201      0.1514
      5  C5        15.6320   14.7170   10.5770 C.ar  201  APR201      0.1160
      6  C6        14.4760   14.5220   11.3710 C.3   201  APR201      0.1745
      7  N6        14.3800   14.9500   12.7280 N.4   201  APR201      0.3770
      8  N7        16.8570   15.2840   10.7340 N.ar  201  APR201     -0.2359
      9  C8        17.5440   15.1480    9.5780 C.ar  201  APR201      0.0998
     10  N9        16.7700   14.5020    8.7170 N.ar  201  APR201     -0.2899
     11  C1'       17.0280   14.1000    7.3560 C.3   201  APR201      0.1416
     12  C2'       18.1120   14.6140    6.8070 C.3   201  APR201      0.0174
     13  O2'       17.7080   15.8790    6.1710 O.3   201  APR201     -0.2528
     14  C3'       18.5530   13.5970    5.7310 C.3   201  APR201      0.0005
     15  O3'       17.8300   13.6980    4.5940 O.3   201  APR201     -0.2528
     16  O4'       17.3970   12.5680    7.4660 O.3   201  APR201     -0.3504
     17  C4'       18.2260   12.2760    6.4560 C.3   201  APR201      0.0884
     18  C5'       19.5290   11.7070    7.0840 C.3   201  APR201      0.0814
     19  O5'       20.3050   12.7780    7.5720 O.3   201  APR201     -0.3247
     20  PA        21.3930   12.4600    8.7790 P.3   201  APR201      0.2182
     21  O1A       20.6590   12.0470   10.0710 O.co2 201  APR201     -0.4371
     22  O2A       22.3580   13.5970    8.9130 O.2   201  APR201     -0.5170
     23  O3A       22.0600   11.0430    8.3820 O.3   201  APR201     -0.2703
     24  PB        23.4480   10.7330    7.5880 P.3   201  APR201      0.2182
     25  O1B       23.5620   11.6120    6.3500 O.co2 201  APR201     -0.5170
     26  O2B       23.3790    9.2640    7.3440 O.3   201  APR201     -0.4371
     27  O5D       24.6950   11.0310    8.5980 O.3   201  APR201     -0.3247
     28  C5D       24.9730   10.1620    9.6830 C.3   201  APR201      0.0813
     29  O4D       24.9930   12.0730   11.2210 O.3   201  APR201     -0.3679
     30  O1D       23.7150   12.4030   13.0210 O.3   201  APR201     -0.2528
     31  C1D       24.9720   12.0160   12.5220 C.3   201  APR201      0.0890
     32  O2D       25.6630   10.2140   14.1690 O.3   201  APR201     -0.2528
     33  C2D       25.2660   10.4810   12.8640 C.3   201  APR201     -0.0011
     34  O3D       27.6050   10.4480   12.1500 O.3   201  APR201     -0.2528
     35  C3D       26.2280   10.1000   11.7660 C.3   201  APR201     -0.0013
     36  C4D       25.8590   10.8640   10.6760 C.3   201  APR201      0.0863
     37  H2        12.5620   12.9430    9.2350 H     201  APR201      0.1015
     38  H61       14.7570   14.3660   13.4730 H     201  APR201     -0.0942
     39  D61       13.9040   14.3400   13.3810 H     201  APR201     -0.0942
     40  H62       13.9380   15.8420   12.9560 H     201  APR201     -0.0942
     41  D62       14.7410   15.8470   13.0430 H     201  APR201     -0.0942
     42  H8        18.5490   15.5030    9.3910 H     201  APR201      0.1030
     43  H'1       16.1530   14.2600    6.7240 H     201  APR201      0.0842
     44  H'2       18.8920   14.7360    7.5380 H     201  APR201      0.0352
     45 HO'2       18.1290   15.9610    5.2900 H     201  APR201      0.0000
     46 DO'2       18.2000   15.9300    5.3280 H     201  APR201      0.2528
     47  H'3       19.6170   13.6880    5.5120 H     201  APR201      0.0334
     48 HO'3       17.6370   14.6330    4.3790 H     201  APR201      0.2528
     49 DO'3       17.8660   14.6430    4.3100 H     201  APR201      0.0000
     50  H'4       17.7710   11.5530    5.7770 H     201  APR201      0.0623
     51 H5'1       19.2900   11.0340    7.9030 H     201  APR201      0.0590
     52 H5'2       20.1130   11.1860    6.3230 H     201  APR201      0.0590
     53 H5R1       24.0510    9.8790   10.1750 H     201  APR201      0.0590
     54 H5R2       25.4740    9.2710    9.3130 H     201  APR201      0.0590
     55 HOR1       23.0730   11.6740   12.8830 H     201  APR201      0.2528
     56 DOR1       23.2260   11.6270   13.3700 H     201  APR201      0.0000
     57 HR'1       25.7560   12.6530   12.9410 H     201  APR201      0.0625
     58 HOR2       26.3090   10.8950   14.4730 H     201  APR201      0.2528
     59 DOR2       26.5840   10.5240   14.3450 H     201  APR201      0.0000
     60 HR'2       24.3500    9.9340   12.6960 H     201  APR201      0.0334
     61 HOR3       27.5830   10.8890   13.0260 H     201  APR201      0.2528
     62 DOR3       27.5510   11.2500   12.7370 H     201  APR201      0.0000
     63 HR'3       26.0840    9.0470   11.5450 H     201  APR201      0.0334
     64 HR'4       26.7310   11.3220   10.2100 H     201  APR201      0.0622
@<TRIPOS>UNITY_ATOM_ATTR
21 1
charge -1
25 1
charge -1
@<TRIPOS>BOND
     1    48    15    1
     2    46    13    1
     3    47    14    1
     4    14    17    1
     5    14    12    1
     6    50    17    1
     7    52    18    1
     8    25    24    2
     9    17    18    1
    10    17    16    1
    11    43    11    1
    12    12    11    1
    13    12    44    1
    14    18    19    1
    15    18    51    1
    16    26    24    1
    17    11    16    1
    18    11    10    1
    19    19    20    1
    20    24    23    1
    21    24    27    1
    22    23    20    1
    23    27    28    1
    24    10     4   ar
    25    10     9   ar
    26    20    22    2
    27    20    21    1
    28     3     4    1
    29     3     2    1
    30    37     2    1
    31     4     5   ar
    32    54    28    1
    33    42     9    1
    34     9     8   ar
    35     2     1    2
    36    28    53    1
    37    28    36    1
    38    64    36    1
    39     5     8   ar
    40     5     6    1
    41    36    29    1
    42    36    35    1
    43     1     6    1
    44    29    31    1
    45    63    35    1
    46    35    33    1
    47    34    61    1
    48    31    33    1
    49    31    57    1
    50    60    33    1
    51     7    40    1
    52     7    41    1
    53     7    39    1
    54     7    38    1
    55    55    30    1
    56    32    58    1
