@<TRIPOS>MOLECULE
/home/pku/3cl/gett_pdb/8F44/8F44_mol2/ligand/8F44_XFF.pdb
 33 34 0 0 0
SMALL
GASTEIGER

@<TRIPOS>ATOM
      1  C5        14.6280   21.6050   26.7980 C.3   401  XFF401      0.0001
      2  C10        7.2980   21.2440   26.1400 C.3   401  XFF401      0.0818
      3  C1        10.8950   24.2660   26.1820 C.2   401  XFF401      0.4215
      4  C2        11.7070   22.3120   27.4040 C.3   401  XFF401      0.1761
      5  C3        12.7730   21.9720   28.5010 C.3   401  XFF401      0.0312
      6  C4        14.1860   22.3980   28.0300 C.3   401  XFF401      0.0022
      7  C6        15.2380   22.2830   29.1750 C.3   401  XFF401      0.0001
      8  C7        10.3650   21.7670   27.8300 C.2   401  XFF401      0.2614
      9  C8         8.6350   19.9430   27.8970 C.3   401  XFF401      0.1287
     10  C14        8.9260   18.5690   28.5000 C.3   401  XFF401      0.2036
     11  C13        6.4100   22.0030   27.1620 C.3   401  XFF401      0.0326
     12  C12        5.3570   22.6540   26.3290 C.3   401  XFF401      0.1156
     13  C11        6.3610   21.0840   24.9450 C.2   401  XFF401      0.2410
     14  C9         7.6920   19.8610   26.6420 C.3   401  XFF401      0.0335
     15  C15       10.7160   26.2210   24.8450 C.3   401  XFF401      0.2202
     16  C16       10.9710   27.7540   25.0100 C.3   401  XFF401      0.0837
     17  C17        9.9520   28.3740   26.0220 C.3   401  XFF401      0.0149
     18  C19        9.5480   29.9240   23.4250 C.ar  401  XFF401      0.0253
     19  O3         7.7150   18.0210   29.0400 O.3   401  XFF401     -0.2185
     20  O1        10.3960   23.5560   25.2940 O.2   401  XFF401     -0.2246
     21  C20        8.1960   29.6230   23.1970 C.ar  401  XFF401      0.0062
     22  C22        7.5960   31.9690   23.5650 C.ar  401  XFF401      0.0000
     23  C18       12.4430   27.9650   25.5030 C.3   401  XFF401      0.0149
     24  C21        7.2220   30.6390   23.2590 C.ar  401  XFF401      0.0005
     25  C23        8.9630   32.2690   23.8070 C.ar  401  XFF401      0.0005
     26  C24        9.9370   31.2410   23.7400 C.ar  401  XFF401      0.0062
     27  N1        11.5860   23.7460   27.2310 N.am  401  XFF401     -0.1611
     28  N2         9.9300   20.4880   27.5080 N.am  401  XFF401     -0.2030
     29  N3         5.2310   21.9050   25.0680 N.am  401  XFF401     -0.2054
     30  O2         6.5240   20.3520   23.9670 O.2   401  XFF401     -0.2734
     31  O4         9.5970   22.5290   28.4600 O.2   401  XFF401     -0.2715
     32  O5        10.7560   25.6230   26.1160 O.3   401  XFF401     -0.4326
     33  S1        10.7810   28.5880   23.3440 S.3   401  XFF401     -0.1117
@<TRIPOS>BOND
     1    21    24   ar
     2    21    18   ar
     3    24    22   ar
     4    33    18    1
     5    33    16    1
     6    18    26   ar
     7    22    25   ar
     8    26    25   ar
     9    30    13    2
    10    15    16    1
    11    15    32    1
    12    13    29   am
    13    13     2    1
    14    16    23    1
    15    16    17    1
    16    29    12    1
    17    20     3    2
    18    32     3    1
    19     2    14    1
    20     2    11    1
    21     3    27   am
    22    12    11    1
    23    14     9    1
    24     1     6    1
    25    27     4    1
    26     4     8    1
    27     4     5    1
    28    28     8   am
    29    28     9    1
    30     8    31    2
    31     9    10    1
    32     6     5    1
    33     6     7    1
    34    10    19    1
