@<TRIPOS>MOLECULE
/home/pku/3cl/gett_pdb/5RSZ/5RSZ_mol2/ligand/5RSZ_ZZA.pdb
 21 22 0 0 0
SMALL
GASTEIGER

@<TRIPOS>ATOM
      1  O1       -43.2160  -31.6400    3.4130 O.co2 201  ZZA201     -0.5445
      2  C2       -43.6390  -32.5510    2.6510 C.2   201  ZZA201      0.0746
      3  O3       -44.2130  -33.5170    3.1710 O.co2 201  ZZA201     -0.5445
      4  C4       -43.4450  -32.4850    1.1500 C.ar  201  ZZA201      0.0352
      5  C5       -42.6260  -31.6190    0.4380 C.ar  201  ZZA201      0.0586
      6  N6       -42.7020  -31.9310   -0.8250 N.ar  201  ZZA201     -0.1742
      7  N7       -43.5410  -32.8880   -0.9500 N.ar  201  ZZA201     -0.2392
      8  C8       -43.9950  -33.3080    0.1690 C.ar  201  ZZA201      0.0401
      9  C9       -43.9070  -33.4450   -2.1830 C.ar  201  ZZA201      0.0654
     10  C10      -45.0420  -34.2030   -2.2330 C.ar  201  ZZA201     -0.0363
     11  C11      -45.4250  -34.7410   -3.4310 C.ar  201  ZZA201     -0.0598
     12  C12      -44.6510  -34.4910   -4.5440 C.ar  201  ZZA201     -0.0616
     13  C13      -43.5280  -33.7060   -4.4640 C.ar  201  ZZA201     -0.0598
     14  C14      -43.1460  -33.1840   -3.2800 C.ar  201  ZZA201     -0.0363
     15  H5       -42.0810  -30.9600    0.8040 H     201  ZZA201      0.0854
     16  H8       -44.6170  -33.9870    0.3000 H     201  ZZA201      0.0837
     17  H10      -45.5460  -34.3620   -1.4680 H     201  ZZA201      0.0639
     18  H14      -42.3840  -32.6540   -3.2170 H     201  ZZA201      0.0639
     19  H11      -46.1880  -35.2700   -3.4920 H     201  ZZA201      0.0618
     20  H12      -44.9020  -34.8490   -5.3650 H     201  ZZA201      0.0618
     21  H13      -43.0160  -33.5510   -5.2250 H     201  ZZA201      0.0618
@<TRIPOS>UNITY_ATOM_ATTR
1 1
charge -1
@<TRIPOS>BOND
     1    20    12    1
     2    21    13    1
     3    12    13   ar
     4    12    11   ar
     5    13    14   ar
     6    19    11    1
     7    11    10   ar
     8    14    18    1
     9    14     9   ar
    10    10     9   ar
    11    10    17    1
    12     9     7    1
    13     7     6   ar
    14     7     8   ar
    15     6     5   ar
    16     8    16    1
    17     8     4   ar
    18     5    15    1
    19     5     4   ar
    20     4     2    1
    21     2     3   ar
    22     2     1   ar
