O2M
  -OEChem-02242320033D

 25 26  0     0  0  0  0  0  0999 V2000
    0.5300    0.4270    0.1410 N   0  0  0  0  0  0  0  0  0  0  0  0
    2.8960   -1.2850   -0.3800 N   0  0  0  0  0  0  0  0  0  0  0  0
   -1.8930    0.5620    0.1010 C   0  0  0  0  0  0  0  0  0  0  0  0
   -0.6150    1.3000    0.4100 C   0  0  0  0  0  0  0  0  0  0  0  0
    1.7830    0.8780    0.3470 C   0  0  0  0  0  0  0  0  0  0  0  0
    2.9340    0.0020    0.0780 C   0  0  0  0  0  0  0  0  0  0  0  0
    4.2730    0.3150    0.2390 C   0  0  0  0  0  0  0  0  0  0  0  0
   -4.5280   -1.5920    1.3890 C   0  0  0  0  0  0  0  0  0  0  0  0
   -3.6580   -0.7300    0.5110 C   0  0  0  0  0  0  0  0  0  0  0  0
   -3.9420   -0.4850   -0.7720 C   0  0  0  0  0  0  0  0  0  0  0  0
    4.9700   -0.8340   -0.1440 C   0  0  0  0  0  0  0  0  0  0  0  0
    4.0920   -1.7390   -0.4920 N   0  0  0  0  0  0  0  0  0  0  0  0
   -2.5550   -0.1540    0.9460 N   0  0  0  0  0  0  0  0  0  0  0  0
    1.9630    2.0090    0.7560 O   0  0  0  0  0  0  0  0  0  0  0  0
   -2.6770    0.5580   -1.4180 S   0  0  0  0  0  0  0  0  0  0  0  0
    0.3870   -0.4760   -0.1810 H   0  0  0  0  0  0  0  0  0  0  0  0
    2.0880   -1.7810   -0.5860 H   0  0  0  0  0  0  0  0  0  0  0  0
   -0.6110    1.5940    1.4590 H   0  0  0  0  0  0  0  0  0  0  0  0
   -0.5490    2.1900   -0.2170 H   0  0  0  0  0  0  0  0  0  0  0  0
    4.6900    1.2490    0.5860 H   0  0  0  0  0  0  0  0  0  0  0  0
   -4.1960   -2.6280    1.3230 H   0  0  0  0  0  0  0  0  0  0  0  0
   -4.4530   -1.2520    2.4210 H   0  0  0  0  0  0  0  0  0  0  0  0
   -5.5630   -1.5200    1.0570 H   0  0  0  0  0  0  0  0  0  0  0  0
   -4.7960   -0.8610   -1.3160 H   0  0  0  0  0  0  0  0  0  0  0  0
    6.0430   -0.9540   -0.1470 H   0  0  0  0  0  0  0  0  0  0  0  0
  2 12  1  0  0  0  0
 11 12  2  0  0  0  0
  2  6  1  0  0  0  0
  7 11  1  0  0  0  0
  1  4  1  0  0  0  0
  1  5  1  0  0  0  0
  6  7  2  0  0  0  0
  5  6  1  0  0  0  0
  3  4  1  0  0  0  0
  5 14  2  0  0  0  0
  3 13  2  0  0  0  0
  3 15  1  0  0  0  0
  9 13  1  0  0  0  0
 10 15  1  0  0  0  0
  9 10  2  0  0  0  0
  8  9  1  0  0  0  0
  1 16  1  0  0  0  0
  2 17  1  0  0  0  0
  4 18  1  0  0  0  0
  4 19  1  0  0  0  0
  7 20  1  0  0  0  0
  8 21  1  0  0  0  0
  8 22  1  0  0  0  0
  8 23  1  0  0  0  0
 10 24  1  0  0  0  0
 11 25  1  0  0  0  0
M  END
> <OPENEYE_ISO_SMILES>
Cc1csc(n1)CNC(=O)c2ccn[nH]2

> <OPENEYE_INCHI>
InChI=1S/C9H10N4OS/c1-6-5-15-8(12-6)4-10-9(14)7-2-3-11-13-7/h2-3,5H,4H2,1H3,(H,10,14)(H,11,13)

> <OPENEYE_INCHIKEY>
URRZFISTFWQMHO-UHFFFAOYSA-N

> <FORMULA>
C9H10N4OS

$$$$
