OEW
  -OEChem-02242320033D

 85 88  0     1  0  0  0  0  0999 V2000
   -4.6960   -1.4550   -1.5620 O   0  0  0  0  0  0  0  0  0  0  0  0
   -4.6610   -0.4910   -0.8270 C   0  0  0  0  0  0  0  0  0  0  0  0
   -5.0650   -0.6050    0.4540 N   0  0  0  0  0  0  0  0  0  0  0  0
   -5.5470   -1.8930    0.9580 C   0  0  0  0  0  0  0  0  0  0  0  0
   -5.4400   -2.1480    2.4630 C   0  0  0  0  0  0  0  0  0  0  0  0
   -6.8070   -1.8860    1.8260 C   0  0  0  0  0  0  0  0  0  0  0  0
   -4.1590    0.8320   -1.3440 C   0  0  2  0  0  0  0  0  0  0  0  0
   -3.8960    0.7280   -2.7440 O   0  0  0  0  0  0  0  0  0  0  0  0
   -2.8710    1.2110   -0.6100 C   0  0  2  0  0  0  0  0  0  0  0  0
   -2.3610    2.5550   -1.1350 C   0  0  0  0  0  0  0  0  0  0  0  0
   -3.3770    3.6500   -0.8030 C   0  0  2  0  0  0  0  0  0  0  0  0
   -2.9620    4.9930   -1.4420 C   0  0  0  0  0  0  0  0  0  0  0  0
   -2.7640    5.8980   -0.2450 C   0  0  0  0  0  0  0  0  0  0  0  0
   -3.0040    5.2490    0.8390 N   0  0  0  0  0  0  0  0  0  0  0  0
   -3.3650    3.9640    0.6790 C   0  0  0  0  0  0  0  0  0  0  0  0
   -3.6320    3.1870    1.5720 O   0  0  0  0  0  0  0  0  0  0  0  0
   -1.8560    0.1800   -0.8410 N   0  0  0  0  0  0  0  0  0  0  0  0
   -0.8190    0.0530    0.0100 C   0  0  0  0  0  0  0  0  0  0  0  0
   -0.6750    0.8480    0.9140 O   0  0  0  0  0  0  0  0  0  0  0  0
    0.1630   -1.0770   -0.1630 C   0  0  2  0  0  0  0  0  0  0  0  0
   -0.5730   -2.4140   -0.0510 C   0  0  0  0  0  0  0  0  0  0  0  0
    0.4080   -3.5590   -0.3080 C   0  0  0  0  0  0  0  0  0  0  0  0
    0.8860   -3.5040   -1.7610 C   0  0  0  0  0  0  0  0  0  0  0  0
    1.8670   -4.6500   -2.0190 C   0  0  0  0  0  0  0  0  0  0  0  0
    1.1690   -5.9870   -1.7620 C   0  0  0  0  0  0  0  0  0  0  0  0
    0.6900   -6.0420   -0.3100 C   0  0  0  0  0  0  0  0  0  0  0  0
   -0.2900   -4.8960   -0.0520 C   0  0  0  0  0  0  0  0  0  0  0  0
    1.1890   -0.9960    0.8800 N   0  0  0  0  0  0  0  0  0  0  0  0
    2.4660   -0.7390    0.5380 C   0  0  0  0  0  0  0  0  0  0  0  0
    2.7640   -0.5760   -0.6350 O   0  0  0  0  0  0  0  0  0  0  0  0
    3.4610   -0.6590    1.5370 C   0  0  0  0  0  0  0  0  0  0  0  0
    3.1080   -0.8450    2.8450 C   0  0  0  0  0  0  0  0  0  0  0  0
    1.7690   -1.1100    3.1630 C   0  0  0  0  0  0  0  0  0  0  0  0
    0.8400   -1.1750    2.1810 C   0  0  0  0  0  0  0  0  0  0  0  0
    4.7930   -0.3930    1.1920 N   0  0  0  0  0  0  0  0  0  0  0  0
    5.1050    0.7390    0.5300 C   0  0  0  0  0  0  0  0  0  0  0  0
    4.2450    1.5670    0.3050 O   0  0  0  0  0  0  0  0  0  0  0  0
    6.3690    0.9520    0.1190 O   0  0  0  0  0  0  0  0  0  0  0  0
    6.6330    2.1930   -0.5880 C   0  0  0  0  0  0  0  0  0  0  0  0
    6.2890    3.3780    0.3170 C   0  0  0  0  0  0  0  0  0  0  0  0
    8.1120    2.2570   -0.9730 C   0  0  0  0  0  0  0  0  0  0  0  0
    5.7730    2.2520   -1.8530 C   0  0  0  0  0  0  0  0  0  0  0  0
   -5.0370    0.1660    1.0410 H   0  0  0  0  0  0  0  0  0  0  0  0
   -5.4000   -2.7440    0.2920 H   0  0  0  0  0  0  0  0  0  0  0  0
   -5.2230   -3.1660    2.7860 H   0  0  0  0  0  0  0  0  0  0  0  0
   -5.0110   -1.3570    3.0770 H   0  0  0  0  0  0  0  0  0  0  0  0
   -7.2770   -0.9220    2.0220 H   0  0  0  0  0  0  0  0  0  0  0  0
   -7.4890   -2.7310    1.7310 H   0  0  0  0  0  0  0  0  0  0  0  0
   -4.9140    1.6000   -1.1720 H   0  0  0  0  0  0  0  0  0  0  0  0
   -3.2320    0.0630   -2.9720 H   0  0  0  0  0  0  0  0  0  0  0  0
   -3.0710    1.2910    0.4580 H   0  0  0  0  0  0  0  0  0  0  0  0
   -1.4070    2.7910   -0.6640 H   0  0  0  0  0  0  0  0  0  0  0  0
   -2.2290    2.4970   -2.2150 H   0  0  0  0  0  0  0  0  0  0  0  0
   -4.3760    3.3600   -1.1290 H   0  0  0  0  0  0  0  0  0  0  0  0
   -2.0320    4.8830   -1.9990 H   0  0  0  0  0  0  0  0  0  0  0  0
   -3.7540    5.3730   -2.0880 H   0  0  0  0  0  0  0  0  0  0  0  0
   -2.4650    6.9350   -0.2940 H   0  0  0  0  0  0  0  0  0  0  0  0
   -1.9310   -0.4100   -1.6070 H   0  0  0  0  0  0  0  0  0  0  0  0
    0.6340   -1.0030   -1.1430 H   0  0  0  0  0  0  0  0  0  0  0  0
   -0.9940   -2.5140    0.9500 H   0  0  0  0  0  0  0  0  0  0  0  0
   -1.3750   -2.4490   -0.7880 H   0  0  0  0  0  0  0  0  0  0  0  0
    1.2640   -3.4620    0.3600 H   0  0  0  0  0  0  0  0  0  0  0  0
    0.0300   -3.6010   -2.4290 H   0  0  0  0  0  0  0  0  0  0  0  0
    1.3840   -2.5520   -1.9440 H   0  0  0  0  0  0  0  0  0  0  0  0
    2.2080   -4.6110   -3.0530 H   0  0  0  0  0  0  0  0  0  0  0  0
    2.7230   -4.5530   -1.3500 H   0  0  0  0  0  0  0  0  0  0  0  0
    0.3130   -6.0840   -2.4300 H   0  0  0  0  0  0  0  0  0  0  0  0
    1.8670   -6.8030   -1.9460 H   0  0  0  0  0  0  0  0  0  0  0  0
    0.1930   -6.9940   -0.1270 H   0  0  0  0  0  0  0  0  0  0  0  0
    1.5460   -5.9450    0.3590 H   0  0  0  0  0  0  0  0  0  0  0  0
   -0.6310   -4.9350    0.9830 H   0  0  0  0  0  0  0  0  0  0  0  0
   -1.1460   -4.9930   -0.7200 H   0  0  0  0  0  0  0  0  0  0  0  0
    3.8530   -0.7880    3.6250 H   0  0  0  0  0  0  0  0  0  0  0  0
    1.4770   -1.2580    4.1920 H   0  0  0  0  0  0  0  0  0  0  0  0
   -0.1900   -1.3790    2.4340 H   0  0  0  0  0  0  0  0  0  0  0  0
    5.4910   -1.0240    1.4290 H   0  0  0  0  0  0  0  0  0  0  0  0
    6.9020    3.3360    1.2180 H   0  0  0  0  0  0  0  0  0  0  0  0
    6.4870    4.3090   -0.2130 H   0  0  0  0  0  0  0  0  0  0  0  0
    5.2350    3.3320    0.5910 H   0  0  0  0  0  0  0  0  0  0  0  0
    8.3560    1.4130   -1.6180 H   0  0  0  0  0  0  0  0  0  0  0  0
    8.3090    3.1880   -1.5030 H   0  0  0  0  0  0  0  0  0  0  0  0
    8.7240    2.2150   -0.0720 H   0  0  0  0  0  0  0  0  0  0  0  0
    4.7190    2.2060   -1.5780 H   0  0  0  0  0  0  0  0  0  0  0  0
    5.9710    3.1830   -2.3830 H   0  0  0  0  0  0  0  0  0  0  0  0
    6.0180    1.4080   -2.4970 H   0  0  0  0  0  0  0  0  0  0  0  0
  5  6  1  0  0  0  0
  4  6  1  0  0  0  0
  4  5  1  0  0  0  0
 39 42  1  0  0  0  0
 13 14  2  0  0  0  0
 12 13  1  0  0  0  0
  3  4  1  0  0  0  0
 14 15  1  0  0  0  0
 11 12  1  0  0  0  0
  1  2  2  0  0  0  0
 38 39  1  0  0  0  0
 39 40  1  0  0  0  0
 39 41  1  0  0  0  0
 36 38  1  0  0  0  0
  2  3  1  0  0  0  0
  2  7  1  0  0  0  0
 11 15  1  0  0  0  0
 15 16  2  0  0  0  0
 10 11  1  0  0  0  0
  9 10  1  0  0  0  0
 18 19  2  0  0  0  0
 36 37  2  0  0  0  0
 35 36  1  0  0  0  0
  7  9  1  0  0  0  0
  9 17  1  0  0  0  0
  7  8  1  0  0  0  0
 31 35  1  0  0  0  0
 17 18  1  0  0  0  0
 18 20  1  0  0  0  0
 31 32  2  0  0  0  0
 32 33  1  0  0  0  0
 29 31  1  0  0  0  0
 33 34  2  0  0  0  0
 29 30  2  0  0  0  0
 28 29  1  0  0  0  0
 28 34  1  0  0  0  0
 20 28  1  0  0  0  0
 20 21  1  0  0  0  0
 21 22  1  0  0  0  0
 22 23  1  0  0  0  0
 22 27  1  0  0  0  0
 23 24  1  0  0  0  0
 26 27  1  0  0  0  0
 24 25  1  0  0  0  0
 25 26  1  0  0  0  0
  3 43  1  0  0  0  0
  4 44  1  0  0  0  0
  5 45  1  0  0  0  0
  5 46  1  0  0  0  0
  6 47  1  0  0  0  0
  6 48  1  0  0  0  0
  7 49  1  0  0  0  0
  8 50  1  0  0  0  0
  9 51  1  0  0  0  0
 10 52  1  0  0  0  0
 10 53  1  0  0  0  0
 11 54  1  0  0  0  0
 12 55  1  0  0  0  0
 12 56  1  0  0  0  0
 13 57  1  0  0  0  0
 17 58  1  0  0  0  0
 20 59  1  0  0  0  0
 21 60  1  0  0  0  0
 21 61  1  0  0  0  0
 22 62  1  0  0  0  0
 23 63  1  0  0  0  0
 23 64  1  0  0  0  0
 24 65  1  0  0  0  0
 24 66  1  0  0  0  0
 25 67  1  0  0  0  0
 25 68  1  0  0  0  0
 26 69  1  0  0  0  0
 26 70  1  0  0  0  0
 27 71  1  0  0  0  0
 27 72  1  0  0  0  0
 32 73  1  0  0  0  0
 33 74  1  0  0  0  0
 34 75  1  0  0  0  0
 35 76  1  0  0  0  0
 40 77  1  0  0  0  0
 40 78  1  0  0  0  0
 40 79  1  0  0  0  0
 41 80  1  0  0  0  0
 41 81  1  0  0  0  0
 41 82  1  0  0  0  0
 42 83  1  0  0  0  0
 42 84  1  0  0  0  0
 42 85  1  0  0  0  0
M  END
> <OPENEYE_ISO_SMILES>
CC(C)(C)OC(=O)Nc1cccn(c1=O)[C@@H](CC2CCCCC2)C(=O)N[C@@H](C[C@@H]3CC=NC3=O)[C@H](C(=O)NC4CC4)O

> <OPENEYE_INCHI>
InChI=1S/C30H43N5O7/c1-30(2,3)42-29(41)34-21-10-7-15-35(28(21)40)23(16-18-8-5-4-6-9-18)26(38)33-22(17-19-13-14-31-25(19)37)24(36)27(39)32-20-11-12-20/h7,10,14-15,18-20,22-24,36H,4-6,8-9,11-13,16-17H2,1-3H3,(H,32,39)(H,33,38)(H,34,41)/t19-,22-,23-,24+/m0/s1

> <OPENEYE_INCHIKEY>
SFLPCGWJLKRMNL-ZNEWLNCYSA-N

> <FORMULA>
C30H43N5O7

$$$$
