UH1
  -OEChem-02242320043D

 29 30  0     0  0  0  0  0  0999 V2000
    1.8610    0.8460    0.9540 N   0  0  0  0  0  0  0  0  0  0  0  0
   -3.4050    1.5130   -1.3530 C   0  0  0  0  0  0  0  0  0  0  0  0
   -4.1330    0.3850   -1.0370 C   0  0  0  0  0  0  0  0  0  0  0  0
   -3.7030   -0.4540   -0.0070 C   0  0  0  0  0  0  0  0  0  0  0  0
   -4.4540   -1.6270    0.3270 C   0  0  0  0  0  0  0  0  0  0  0  0
   -2.5370   -0.1440    0.6970 C   0  0  0  0  0  0  0  0  0  0  0  0
    2.7710   -1.1020   -0.1650 C   0  0  0  0  0  0  0  0  0  0  0  0
    4.2070    0.7420    0.3680 C   0  0  0  0  0  0  0  0  0  0  0  0
   -5.0500   -2.5570    0.5920 N   0  0  0  0  0  0  0  0  0  0  0  0
   -2.2470    1.8110   -0.6560 C   0  0  0  0  0  0  0  0  0  0  0  0
   -1.8190    0.9870    0.3700 C   0  0  0  0  0  0  0  0  0  0  0  0
   -0.5600    1.3240    1.1280 C   0  0  0  0  0  0  0  0  0  0  0  0
    0.6220    0.6820    0.4490 C   0  0  0  0  0  0  0  0  0  0  0  0
    0.4590    0.0160   -0.5520 O   0  0  0  0  0  0  0  0  0  0  0  0
    2.9440    0.1650    0.3880 C   0  0  0  0  0  0  0  0  0  0  0  0
    5.2290    0.1040   -0.1660 N   0  0  0  0  0  0  0  0  0  0  0  0
    5.1000   -1.0980   -0.6920 C   0  0  0  0  0  0  0  0  0  0  0  0
    3.8740   -1.7380   -0.7100 C   0  0  0  0  0  0  0  0  0  0  0  0
    2.0020    1.4410    1.7080 H   0  0  0  0  0  0  0  0  0  0  0  0
   -3.7360    2.1620   -2.1500 H   0  0  0  0  0  0  0  0  0  0  0  0
   -5.0340    0.1510   -1.5850 H   0  0  0  0  0  0  0  0  0  0  0  0
   -2.2000   -0.7880    1.4950 H   0  0  0  0  0  0  0  0  0  0  0  0
    1.8020   -1.5780   -0.1650 H   0  0  0  0  0  0  0  0  0  0  0  0
    4.3520    1.7240    0.7940 H   0  0  0  0  0  0  0  0  0  0  0  0
   -1.6790    2.6930   -0.9100 H   0  0  0  0  0  0  0  0  0  0  0  0
   -0.4260    2.4050    1.1470 H   0  0  0  0  0  0  0  0  0  0  0  0
   -0.6400    0.9500    2.1490 H   0  0  0  0  0  0  0  0  0  0  0  0
    5.9620   -1.5880   -1.1200 H   0  0  0  0  0  0  0  0  0  0  0  0
    3.7780   -2.7220   -1.1430 H   0  0  0  0  0  0  0  0  0  0  0  0
 16 17  2  0  0  0  0
  8 16  1  0  0  0  0
 17 18  1  0  0  0  0
  8 15  2  0  0  0  0
  7 18  2  0  0  0  0
  7 15  1  0  0  0  0
  1 15  1  0  0  0  0
  5  9  3  0  0  0  0
  1 13  1  0  0  0  0
 13 14  2  0  0  0  0
  4  5  1  0  0  0  0
 12 13  1  0  0  0  0
  4  6  2  0  0  0  0
  6 11  1  0  0  0  0
  3  4  1  0  0  0  0
 11 12  1  0  0  0  0
 10 11  2  0  0  0  0
  2  3  2  0  0  0  0
  2 10  1  0  0  0  0
  1 19  1  0  0  0  0
  2 20  1  0  0  0  0
  3 21  1  0  0  0  0
  6 22  1  0  0  0  0
  7 23  1  0  0  0  0
  8 24  1  0  0  0  0
 10 25  1  0  0  0  0
 12 26  1  0  0  0  0
 12 27  1  0  0  0  0
 17 28  1  0  0  0  0
 18 29  1  0  0  0  0
M  END
> <OPENEYE_ISO_SMILES>
c1cc(cc(c1)C#N)CC(=O)Nc2cccnc2

> <OPENEYE_INCHI>
InChI=1S/C14H11N3O/c15-9-12-4-1-3-11(7-12)8-14(18)17-13-5-2-6-16-10-13/h1-7,10H,8H2,(H,17,18)

> <OPENEYE_INCHIKEY>
DSTLUTUEFNLBST-UHFFFAOYSA-N

> <FORMULA>
C14H11N3O

$$$$
