UUJ
  -OEChem-02242320043D

 14 14  0     0  0  0  0  0  0999 V2000
   -0.5990    0.2300   -0.0080 C   0  0  0  0  0  0  0  0  0  0  0  0
   -0.2330    1.5670   -0.0140 C   0  0  0  0  0  0  0  0  0  0  0  0
    1.1010    1.9260   -0.0180 C   0  0  0  0  0  0  0  0  0  0  0  0
    3.5260   -2.2300   -0.0030 N   0  0  0  0  0  0  0  0  0  0  0  0
    2.0840    0.9480   -0.0160 C   0  0  0  0  0  0  0  0  0  0  0  0
    3.3950    1.3010   -0.0190 O   0  0  0  0  0  0  0  0  0  0  0  0
    1.7190   -0.4050   -0.0090 C   0  0  0  0  0  0  0  0  0  0  0  0
    2.7270   -1.4230   -0.0060 C   0  0  0  0  0  0  0  0  0  0  0  0
    0.3670   -0.7550   -0.0050 C   0  0  0  0  0  0  0  0  0  0  0  0
   -2.4290   -0.2450    0.0060 Br  0  0  0  0  0  0  0  0  0  0  0  0
   -0.9950    2.3320   -0.0170 H   0  0  0  0  0  0  0  0  0  0  0  0
    1.3780    2.9700   -0.0240 H   0  0  0  0  0  0  0  0  0  0  0  0
    3.7760    1.4060    0.8630 H   0  0  0  0  0  0  0  0  0  0  0  0
    0.0780   -1.7960    0.0000 H   0  0  0  0  0  0  0  0  0  0  0  0
  1 10  1  0  0  0  0
  1  9  2  0  0  0  0
  1  2  1  0  0  0  0
  7  9  1  0  0  0  0
  2  3  2  0  0  0  0
  7  8  1  0  0  0  0
  5  7  2  0  0  0  0
  4  8  3  0  0  0  0
  3  5  1  0  0  0  0
  5  6  1  0  0  0  0
  2 11  1  0  0  0  0
  3 12  1  0  0  0  0
  6 13  1  0  0  0  0
  9 14  1  0  0  0  0
M  END
> <OPENEYE_ISO_SMILES>
c1cc(c(cc1Br)C#N)O

> <OPENEYE_INCHI>
InChI=1S/C7H4BrNO/c8-6-1-2-7(10)5(3-6)4-9/h1-3,10H

> <OPENEYE_INCHIKEY>
PVCONXMDUZOPJH-UHFFFAOYSA-N

> <FORMULA>
C7H4BrNO

$$$$
