VZM
  -OEChem-02242320043D

 28 29  0     0  0  0  0  0  0999 V2000
   -2.0480    1.2760   -0.1840 N   0  0  0  0  0  0  0  0  0  0  0  0
    1.5280    0.7450   -0.1740 C   0  0  0  0  0  0  0  0  0  0  0  0
   -0.8490    0.6710   -0.0630 C   0  0  0  0  0  0  0  0  0  0  0  0
   -3.2230    0.5300   -0.0540 C   0  0  0  0  0  0  0  0  0  0  0  0
   -4.4660    1.0230   -0.1490 C   0  0  0  0  0  0  0  0  0  0  0  0
   -5.4750    0.0880    0.0150 C   0  0  0  0  0  0  0  0  0  0  0  0
    2.6410    1.3790    0.3580 C   0  0  0  0  0  0  0  0  0  0  0  0
   -0.7900   -0.5230    0.1590 O   0  0  0  0  0  0  0  0  0  0  0  0
   -3.2990   -1.2000    0.2520 S   0  0  0  0  0  0  0  0  0  0  0  0
   -5.0570   -1.1570    0.2420 C   0  0  0  0  0  0  0  0  0  0  0  0
    0.2840    1.3900   -0.1890 N   0  0  0  0  0  0  0  0  0  0  0  0
    1.6640   -0.5380   -0.6990 C   0  0  0  0  0  0  0  0  0  0  0  0
    2.9110   -1.1360   -0.6630 C   0  0  0  0  0  0  0  0  0  0  0  0
    3.8160    0.7780    0.3750 N   0  0  0  0  0  0  0  0  0  0  0  0
    3.9790   -0.4420   -0.1100 C   0  0  0  0  0  0  0  0  0  0  0  0
    5.2070   -1.0200   -0.0700 O   0  0  0  0  0  0  0  0  0  0  0  0
    6.2650   -0.2560    0.5120 C   0  0  0  0  0  0  0  0  0  0  0  0
   -2.0950    2.2290   -0.3580 H   0  0  0  0  0  0  0  0  0  0  0  0
   -4.6660    2.0670   -0.3390 H   0  0  0  0  0  0  0  0  0  0  0  0
   -6.5220    0.3480   -0.0370 H   0  0  0  0  0  0  0  0  0  0  0  0
    2.5460    2.3750    0.7640 H   0  0  0  0  0  0  0  0  0  0  0  0
   -5.7000   -2.0110    0.3930 H   0  0  0  0  0  0  0  0  0  0  0  0
    0.2380    2.3540   -0.2890 H   0  0  0  0  0  0  0  0  0  0  0  0
    0.8160   -1.0540   -1.1230 H   0  0  0  0  0  0  0  0  0  0  0  0
    3.0530   -2.1300   -1.0610 H   0  0  0  0  0  0  0  0  0  0  0  0
    7.1890   -0.8330    0.4800 H   0  0  0  0  0  0  0  0  0  0  0  0
    6.3950    0.6700   -0.0480 H   0  0  0  0  0  0  0  0  0  0  0  0
    6.0180   -0.0230    1.5470 H   0  0  0  0  0  0  0  0  0  0  0  0
 16 17  1  0  0  0  0
 15 16  1  0  0  0  0
 13 15  2  0  0  0  0
 14 15  1  0  0  0  0
 12 13  1  0  0  0  0
  7 14  2  0  0  0  0
  2 12  2  0  0  0  0
  2  7  1  0  0  0  0
  2 11  1  0  0  0  0
  3  8  2  0  0  0  0
  3 11  1  0  0  0  0
  1  3  1  0  0  0  0
  4  9  1  0  0  0  0
  9 10  1  0  0  0  0
  1  4  1  0  0  0  0
  4  5  2  0  0  0  0
  6 10  2  0  0  0  0
  5  6  1  0  0  0  0
  1 18  1  0  0  0  0
  5 19  1  0  0  0  0
  6 20  1  0  0  0  0
  7 21  1  0  0  0  0
 10 22  1  0  0  0  0
 11 23  1  0  0  0  0
 12 24  1  0  0  0  0
 13 25  1  0  0  0  0
 17 26  1  0  0  0  0
 17 27  1  0  0  0  0
 17 28  1  0  0  0  0
M  END
> <OPENEYE_ISO_SMILES>
COc1ccc(cn1)NC(=O)Nc2cccs2

> <OPENEYE_INCHI>
InChI=1S/C11H11N3O2S/c1-16-9-5-4-8(7-12-9)13-11(15)14-10-3-2-6-17-10/h2-7H,1H3,(H2,13,14,15)

> <OPENEYE_INCHIKEY>
QQTNSKDCQAMODS-UHFFFAOYSA-N

> <FORMULA>
C11H11N3O2S

$$$$
