A2R
  -OEChem-02242320013D

 64 67  0     1  0  0  0  0  0999 V2000
    7.3160   -0.0450   -0.7050 O   0  0  0  0  0  0  0  0  0  0  0  0
    6.7710   -1.4850   -1.1750 P   0  0  0  0  0  0  0  0  0  0  0  0
    7.4220   -1.8670   -2.5970 O   0  0  0  0  0  0  0  0  0  0  0  0
    7.1460   -2.5060   -0.1710 O   0  0  0  0  0  0  0  0  0  0  0  0
    5.1680   -1.4330   -1.3140 O   0  0  0  0  0  0  0  0  0  0  0  0
    4.2970   -1.2220   -0.2020 C   0  0  1  0  0  0  0  0  0  0  0  0
    3.4510    0.0530   -0.4100 C   0  0  2  0  0  0  0  0  0  0  0  0
    4.0420    1.1810    0.3140 N   0  0  0  0  0  0  0  0  0  0  0  0
    5.0420    2.0030   -0.1390 C   0  0  0  0  0  0  0  0  0  0  0  0
    5.7600    2.0800   -1.2560 N   0  0  0  0  0  0  0  0  0  0  0  0
    6.6790    3.0110   -1.4000 C   0  0  0  0  0  0  0  0  0  0  0  0
    6.9350    3.9050   -0.4620 N   0  0  0  0  0  0  0  0  0  0  0  0
    6.2690    3.9070    0.6880 C   0  0  0  0  0  0  0  0  0  0  0  0
    6.5440    4.8480    1.6640 N   0  0  0  0  0  0  0  0  0  0  0  0
    5.2770    2.9310    0.8880 C   0  0  0  0  0  0  0  0  0  0  0  0
    4.4240    2.6340    1.8980 N   0  0  0  0  0  0  0  0  0  0  0  0
    3.6940    1.6100    1.5610 C   0  0  0  0  0  0  0  0  0  0  0  0
    2.1540   -0.2710    0.1350 O   0  0  0  0  0  0  0  0  0  0  0  0
    3.2500   -2.3560   -0.1120 C   0  0  2  0  0  0  0  0  0  0  0  0
    3.4440   -3.3010   -1.1660 O   0  0  0  0  0  0  0  0  0  0  0  0
    1.8960   -1.6310   -0.2760 C   0  0  1  0  0  0  0  0  0  0  0  0
    0.8370   -2.2690    0.6250 C   0  0  0  0  0  0  0  0  0  0  0  0
   -0.4160   -1.6120    0.4260 O   0  0  0  0  0  0  0  0  0  0  0  0
   -1.7580   -2.0260    1.2130 P   0  0  2  0  0  0  0  0  0  0  0  0
   -1.5070   -1.9820    2.6710 O   0  0  0  0  0  0  0  0  0  0  0  0
   -2.1920   -3.5170    0.7880 O   0  0  0  0  0  0  0  0  0  0  0  0
   -2.9380   -0.9960    0.8400 O   0  0  0  0  0  0  0  0  0  0  0  0
   -4.3320   -0.5920    1.5380 P   0  0  2  0  0  0  0  0  0  0  0  0
   -4.0510    0.4490    2.7330 O   0  0  0  0  0  0  0  0  0  0  0  0
   -4.9810   -1.8050    2.0830 O   0  0  0  0  0  0  0  0  0  0  0  0
   -5.3000    0.0900    0.4480 O   0  0  0  0  0  0  0  0  0  0  0  0
   -6.6490    0.4650    0.7310 C   0  0  0  0  0  0  0  0  0  0  0  0
   -7.2800    1.0830   -0.5180 C   0  0  2  0  0  0  0  0  0  0  0  0
   -8.6970    1.6100   -0.2010 C   0  0  1  0  0  0  0  0  0  0  0  0
   -8.6660    3.0180    0.0370 O   0  0  0  0  0  0  0  0  0  0  0  0
   -9.5100    1.2940   -1.4760 C   0  0  1  0  0  0  0  0  0  0  0  0
  -10.0050    2.4980   -2.0650 O   0  0  0  0  0  0  0  0  0  0  0  0
   -8.4880    0.6140   -2.4140 C   0  0  1  0  0  0  0  0  0  0  0  0
   -7.4810    0.0730   -1.5310 O   0  0  0  0  0  0  0  0  0  0  0  0
   -9.1150   -0.4350   -3.1560 O   0  0  0  0  0  0  0  0  0  0  0  0
    7.1060    0.6740   -1.3160 H   0  0  0  0  0  0  0  0  0  0  0  0
    8.3870   -1.9160   -2.5870 H   0  0  0  0  0  0  0  0  0  0  0  0
    4.8690   -1.1540    0.7230 H   0  0  0  0  0  0  0  0  0  0  0  0
    3.3700    0.2860   -1.4720 H   0  0  0  0  0  0  0  0  0  0  0  0
    7.2440    3.0460   -2.3190 H   0  0  0  0  0  0  0  0  0  0  0  0
    7.2310    5.5160    1.5140 H   0  0  0  0  0  0  0  0  0  0  0  0
    6.0510    4.8390    2.5000 H   0  0  0  0  0  0  0  0  0  0  0  0
    2.9280    1.1650    2.1780 H   0  0  0  0  0  0  0  0  0  0  0  0
    3.3040   -2.8490    0.8590 H   0  0  0  0  0  0  0  0  0  0  0  0
    2.8140   -4.0340   -1.1570 H   0  0  0  0  0  0  0  0  0  0  0  0
    1.5760   -1.6580   -1.3180 H   0  0  0  0  0  0  0  0  0  0  0  0
    0.7370   -3.3250    0.3760 H   0  0  0  0  0  0  0  0  0  0  0  0
    1.1390   -2.1680    1.6670 H   0  0  0  0  0  0  0  0  0  0  0  0
   -2.3720   -3.6200   -0.1560 H   0  0  0  0  0  0  0  0  0  0  0  0
   -3.6260    1.2700    2.4480 H   0  0  0  0  0  0  0  0  0  0  0  0
   -7.2170   -0.4170    1.0270 H   0  0  0  0  0  0  0  0  0  0  0  0
   -6.6610    1.1940    1.5420 H   0  0  0  0  0  0  0  0  0  0  0  0
   -6.6530    1.8880   -0.9010 H   0  0  0  0  0  0  0  0  0  0  0  0
   -9.1150    1.0870    0.6600 H   0  0  0  0  0  0  0  0  0  0  0  0
   -9.5300    3.4020    0.2420 H   0  0  0  0  0  0  0  0  0  0  0  0
  -10.3320    0.6160   -1.2480 H   0  0  0  0  0  0  0  0  0  0  0  0
  -10.5230    2.3590   -2.8700 H   0  0  0  0  0  0  0  0  0  0  0  0
   -8.0470    1.3460   -3.0890 H   0  0  0  0  0  0  0  0  0  0  0  0
   -8.5200   -0.8980   -3.7610 H   0  0  0  0  0  0  0  0  0  0  0  0
  1  2  1  0  0  0  0
  1 41  1  0  0  0  0
  2  4  2  0  0  0  0
  2  3  1  0  0  0  0
  2  5  1  0  0  0  0
  3 42  1  0  0  0  0
  5  6  1  0  0  0  0
  6  7  1  0  0  0  0
  6 19  1  0  0  0  0
  6 43  1  0  0  0  0
  7  8  1  0  0  0  0
  7 18  1  0  0  0  0
  7 44  1  0  0  0  0
  8  9  1  0  0  0  0
  8 17  1  0  0  0  0
  9 15  2  0  0  0  0
  9 10  1  0  0  0  0
 10 11  2  0  0  0  0
 11 12  1  0  0  0  0
 11 45  1  0  0  0  0
 12 13  2  0  0  0  0
 13 14  1  0  0  0  0
 13 15  1  0  0  0  0
 14 46  1  0  0  0  0
 14 47  1  0  0  0  0
 15 16  1  0  0  0  0
 16 17  2  0  0  0  0
 17 48  1  0  0  0  0
 18 21  1  0  0  0  0
 19 21  1  0  0  0  0
 19 20  1  0  0  0  0
 19 49  1  0  0  0  0
 20 50  1  0  0  0  0
 21 22  1  0  0  0  0
 21 51  1  0  0  0  0
 22 23  1  0  0  0  0
 22 52  1  0  0  0  0
 22 53  1  0  0  0  0
 23 24  1  0  0  0  0
 24 25  2  0  0  0  0
 24 27  1  0  0  0  0
 24 26  1  0  0  0  0
 26 54  1  0  0  0  0
 27 28  1  0  0  0  0
 28 31  1  0  0  0  0
 28 30  2  0  0  0  0
 28 29  1  0  0  0  0
 29 55  1  0  0  0  0
 31 32  1  0  0  0  0
 32 33  1  0  0  0  0
 32 56  1  0  0  0  0
 32 57  1  0  0  0  0
 33 34  1  0  0  0  0
 33 39  1  0  0  0  0
 33 58  1  0  0  0  0
 34 35  1  0  0  0  0
 34 36  1  0  0  0  0
 34 59  1  0  0  0  0
 35 60  1  0  0  0  0
 36 37  1  0  0  0  0
 36 38  1  0  0  0  0
 36 61  1  0  0  0  0
 37 62  1  0  0  0  0
 38 39  1  0  0  0  0
 38 40  1  0  0  0  0
 38 63  1  0  0  0  0
 40 64  1  0  0  0  0
M  END
> <OPENEYE_ISO_SMILES>
c1nc(c2c(n1)n(cn2)[C@H]3[C@@H]([C@@H]([C@H](O3)CO[P@](=O)(O)O[P@@](=O)(O)OC[C@@H]4[C@H]([C@H]([C@@H](O4)O)O)O)O)OP(=O)(O)O)N

> <OPENEYE_INCHI>
InChI=1S/C15H24N5O17P3/c16-12-7-13(18-3-17-12)20(4-19-7)14-11(36-38(25,26)27)9(22)6(34-14)2-33-40(30,31)37-39(28,29)32-1-5-8(21)10(23)15(24)35-5/h3-6,8-11,14-15,21-24H,1-2H2,(H,28,29)(H,30,31)(H2,16,17,18)(H2,25,26,27)/t5-,6-,8-,9-,10-,11-,14-,15-/m1/s1

> <OPENEYE_INCHIKEY>
ICNHOLCERMYLRZ-KEOHHSTQSA-N

> <FORMULA>
C15H24N5O17P3

$$$$
