UJK
  -OEChem-02242320043D

 24 25  0     0  0  0  0  0  0999 V2000
    0.0900    0.1310    0.2180 N   0  0  0  0  0  0  0  0  0  0  0  0
   -0.4750    1.2730    0.8020 N   0  0  0  0  0  0  0  0  0  0  0  0
    4.1530   -0.7620   -0.0700 C   0  0  0  0  0  0  0  0  0  0  0  0
    3.2650   -1.7230    0.3780 C   0  0  0  0  0  0  0  0  0  0  0  0
    1.9180   -1.4300    0.4750 C   0  0  0  0  0  0  0  0  0  0  0  0
    1.4570   -0.1690    0.1220 C   0  0  0  0  0  0  0  0  0  0  0  0
   -0.9340   -0.6270   -0.2280 C   0  0  0  0  0  0  0  0  0  0  0  0
   -3.4540   -0.4130   -0.2200 C   0  0  0  0  0  0  0  0  0  0  0  0
    1.8530    2.1640   -0.7110 C   0  0  0  0  0  0  0  0  0  0  0  0
    2.3500    0.7940   -0.3270 C   0  0  0  0  0  0  0  0  0  0  0  0
    3.6960    0.4960   -0.4170 C   0  0  0  0  0  0  0  0  0  0  0  0
   -2.0850    0.0430    0.0800 C   0  0  0  0  0  0  0  0  0  0  0  0
   -1.7560    1.1880    0.7030 N   0  0  0  0  0  0  0  0  0  0  0  0
   -3.6310   -1.4720   -0.7900 O   0  0  0  0  0  0  0  0  0  0  0  0
   -4.5100    0.3440    0.1390 O   0  0  0  0  0  0  0  0  0  0  0  0
    5.2050   -0.9930   -0.1440 H   0  0  0  0  0  0  0  0  0  0  0  0
    3.6250   -2.7040    0.6520 H   0  0  0  0  0  0  0  0  0  0  0  0
    1.2260   -2.1810    0.8240 H   0  0  0  0  0  0  0  0  0  0  0  0
   -0.8590   -1.5800   -0.7310 H   0  0  0  0  0  0  0  0  0  0  0  0
    1.7820    2.7870    0.1800 H   0  0  0  0  0  0  0  0  0  0  0  0
    2.5480    2.6170   -1.4180 H   0  0  0  0  0  0  0  0  0  0  0  0
    0.8690    2.0770   -1.1730 H   0  0  0  0  0  0  0  0  0  0  0  0
    4.3920    1.2450   -0.7660 H   0  0  0  0  0  0  0  0  0  0  0  0
   -5.3880    0.0030   -0.0790 H   0  0  0  0  0  0  0  0  0  0  0  0
  3 11  2  0  0  0  0
 10 11  1  0  0  0  0
  3  4  1  0  0  0  0
  9 10  1  0  0  0  0
  6 10  2  0  0  0  0
  4  5  2  0  0  0  0
  5  6  1  0  0  0  0
  1  6  1  0  0  0  0
  1  7  1  0  0  0  0
  1  2  1  0  0  0  0
  7 12  2  0  0  0  0
  2 13  2  0  0  0  0
 12 13  1  0  0  0  0
  8 12  1  0  0  0  0
  8 14  2  0  0  0  0
  8 15  1  0  0  0  0
  3 16  1  0  0  0  0
  4 17  1  0  0  0  0
  5 18  1  0  0  0  0
  7 19  1  0  0  0  0
  9 20  1  0  0  0  0
  9 21  1  0  0  0  0
  9 22  1  0  0  0  0
 11 23  1  0  0  0  0
 15 24  1  0  0  0  0
M  END
> <OPENEYE_ISO_SMILES>
Cc1ccccc1n2cc(nn2)C(=O)O

> <OPENEYE_INCHI>
InChI=1S/C10H9N3O2/c1-7-4-2-3-5-9(7)13-6-8(10(14)15)11-12-13/h2-6H,1H3,(H,14,15)

> <OPENEYE_INCHIKEY>
DAYJQFRBEKQYDR-UHFFFAOYSA-N

> <FORMULA>
C10H9N3O2

$$$$
