CMP
  -OEChem-02242320023D

 34 37  0     1  0  0  0  0  0999 V2000
    0.0350    0.4570   -4.1290 P   0  0  1  0  0  0  0  0  0  0  0  0
    1.1270    1.4480   -4.0100 O   0  0  0  0  0  0  0  0  0  0  0  0
   -0.7730    0.7230   -5.4960 O   0  0  0  0  0  0  0  0  0  0  0  0
    0.6640   -1.0200   -4.1670 O   0  0  0  0  0  0  0  0  0  0  0  0
    1.2910   -1.2820   -2.9030 C   0  0  0  0  0  0  0  0  0  0  0  0
    0.2290   -1.1570   -1.8260 C   0  0  1  0  0  0  0  0  0  0  0  0
    0.6560   -1.4530   -0.4970 O   0  0  0  0  0  0  0  0  0  0  0  0
   -0.1930    0.3320   -1.7310 C   0  0  1  0  0  0  0  0  0  0  0  0
   -0.9700    0.6240   -2.8760 O   0  0  0  0  0  0  0  0  0  0  0  0
   -0.9540    0.3400   -0.3940 C   0  0  1  0  0  0  0  0  0  0  0  0
   -2.3530    0.1440   -0.6100 O   0  0  0  0  0  0  0  0  0  0  0  0
   -0.3310   -0.8510    0.3720 C   0  0  2  0  0  0  0  0  0  0  0  0
    0.3090   -0.3740    1.6000 N   0  0  0  0  0  0  0  0  0  0  0  0
    1.6020    0.0350    1.7280 C   0  0  0  0  0  0  0  0  0  0  0  0
    1.8360    0.3930    2.9580 N   0  0  0  0  0  0  0  0  0  0  0  0
    0.7080    0.2410    3.6930 C   0  0  0  0  0  0  0  0  0  0  0  0
    0.3720    0.4520    5.0410 C   0  0  0  0  0  0  0  0  0  0  0  0
    1.3090    0.9380    5.9370 N   0  0  0  0  0  0  0  0  0  0  0  0
   -0.8670    0.1800    5.4340 N   0  0  0  0  0  0  0  0  0  0  0  0
   -1.7670   -0.2820    4.5870 C   0  0  0  0  0  0  0  0  0  0  0  0
   -1.4960   -0.5010    3.3170 N   0  0  0  0  0  0  0  0  0  0  0  0
   -0.2820   -0.2580    2.8330 C   0  0  0  0  0  0  0  0  0  0  0  0
   -0.1360    0.6380   -6.2180 H   0  0  0  0  0  0  0  0  0  0  0  0
    2.0830   -0.5540   -2.7260 H   0  0  0  0  0  0  0  0  0  0  0  0
    1.7060   -2.2900   -2.8990 H   0  0  0  0  0  0  0  0  0  0  0  0
   -0.6320   -1.7720   -2.0840 H   0  0  0  0  0  0  0  0  0  0  0  0
    0.6870    0.9730   -1.6900 H   0  0  0  0  0  0  0  0  0  0  0  0
   -0.7760    1.2720    0.1430 H   0  0  0  0  0  0  0  0  0  0  0  0
   -2.7750    0.1590    0.2590 H   0  0  0  0  0  0  0  0  0  0  0  0
   -1.1040   -1.5800    0.6160 H   0  0  0  0  0  0  0  0  0  0  0  0
    2.3270    0.0590    0.9280 H   0  0  0  0  0  0  0  0  0  0  0  0
    1.0630    1.0830    6.8640 H   0  0  0  0  0  0  0  0  0  0  0  0
    2.2120    1.1290    5.6390 H   0  0  0  0  0  0  0  0  0  0  0  0
   -2.7630   -0.4900    4.9480 H   0  0  0  0  0  0  0  0  0  0  0  0
  1  2  2  0  0  0  0
  1  3  1  0  0  0  0
  1  4  1  0  0  0  0
  1  9  1  0  0  0  0
  3 23  1  0  0  0  0
  4  5  1  0  0  0  0
  5  6  1  0  0  0  0
  5 24  1  0  0  0  0
  5 25  1  0  0  0  0
  6  7  1  0  0  0  0
  6  8  1  0  0  0  0
  6 26  1  0  0  0  0
  7 12  1  0  0  0  0
  8  9  1  0  0  0  0
  8 10  1  0  0  0  0
  8 27  1  0  0  0  0
 10 11  1  0  0  0  0
 10 12  1  0  0  0  0
 10 28  1  0  0  0  0
 11 29  1  0  0  0  0
 12 13  1  0  0  0  0
 12 30  1  0  0  0  0
 13 14  1  0  0  0  0
 13 22  1  0  0  0  0
 14 15  2  0  0  0  0
 14 31  1  0  0  0  0
 15 16  1  0  0  0  0
 16 17  1  0  0  0  0
 16 22  2  0  0  0  0
 17 18  1  0  0  0  0
 17 19  2  0  0  0  0
 18 32  1  0  0  0  0
 18 33  1  0  0  0  0
 19 20  1  0  0  0  0
 20 21  2  0  0  0  0
 20 34  1  0  0  0  0
 21 22  1  0  0  0  0
M  END
> <OPENEYE_ISO_SMILES>
c1nc(c2c(n1)n(cn2)[C@H]3[C@@H]([C@H]4[C@H](O3)CO[P@](=O)(O4)O)O)N

> <OPENEYE_INCHI>
InChI=1S/C10H12N5O6P/c11-8-5-9(13-2-12-8)15(3-14-5)10-6(16)7-4(20-10)1-19-22(17,18)21-7/h2-4,6-7,10,16H,1H2,(H,17,18)(H2,11,12,13)/t4-,6-,7-,10-/m1/s1

> <OPENEYE_INCHIKEY>
IVOMOUWHDPKRLL-KQYNXXCUSA-N

> <FORMULA>
C10H12N5O6P

$$$$
