VQV
  -OEChem-02242320043D

 39 40  0     1  0  0  0  0  0999 V2000
   -4.0370   -0.5800   -2.1790 O   0  0  0  0  0  0  0  0  0  0  0  0
   -2.7530   -0.0730   -0.4480 N   0  0  0  0  0  0  0  0  0  0  0  0
   -4.7650   -0.9300    1.1650 C   0  0  0  0  0  0  0  0  0  0  0  0
   -3.9010   -0.5410   -0.9710 C   0  0  0  0  0  0  0  0  0  0  0  0
   -2.5760   -0.0180    0.9070 C   0  0  0  0  0  0  0  0  0  0  0  0
   -3.5620   -0.4390    1.7280 C   0  0  0  0  0  0  0  0  0  0  0  0
   -1.6810    0.3780   -1.3390 C   0  0  1  0  0  0  0  0  0  0  0  0
   -1.1370    1.7480   -0.8750 C   0  0  2  0  0  0  0  0  0  0  0  0
    0.0840    1.3890    0.0020 C   0  0  1  0  0  0  0  0  0  0  0  0
    0.1320   -0.1540   -0.0350 C   0  0  2  0  0  0  0  0  0  0  0  0
    1.5830   -0.6410   -0.0680 C   0  0  0  0  0  0  0  0  0  0  0  0
   -4.9000   -0.9670   -0.1760 N   0  0  0  0  0  0  0  0  0  0  0  0
    2.6230   -4.4920   -0.0170 O   0  0  0  0  0  0  0  0  0  0  0  0
   -2.1200    2.4430   -0.1060 O   0  0  0  0  0  0  0  0  0  0  0  0
    2.8700    2.2170    1.5220 O   0  0  0  0  0  0  0  0  0  0  0  0
    1.4260    4.1210    0.7110 O   0  0  0  0  0  0  0  0  0  0  0  0
    3.4040    3.4810   -0.7210 O   0  0  0  0  0  0  0  0  0  0  0  0
    3.8260   -2.5820    1.3300 O   0  0  0  0  0  0  0  0  0  0  0  0
    1.2790    1.9410   -0.5530 O   0  0  0  0  0  0  0  0  0  0  0  0
    3.7660   -2.5740   -1.1930 O   0  0  0  0  0  0  0  0  0  0  0  0
   -5.6680   -1.3140    1.8850 O   0  0  0  0  0  0  0  0  0  0  0  0
   -0.5490   -0.5160   -1.2560 O   0  0  0  0  0  0  0  0  0  0  0  0
    1.6090   -2.0670    0.0150 O   0  0  0  0  0  0  0  0  0  0  0  0
    2.9740   -2.9210    0.0070 P   0  0  0  0  0  0  0  0  0  0  0  0
    2.2270    2.9660    0.2500 P   0  0  0  0  0  0  0  0  0  0  0  0
   -1.6510    0.3590    1.3190 H   0  0  0  0  0  0  0  0  0  0  0  0
   -3.4350   -0.4010    2.8000 H   0  0  0  0  0  0  0  0  0  0  0  0
   -2.0420    0.4410   -2.3650 H   0  0  0  0  0  0  0  0  0  0  0  0
   -0.8300    2.3470   -1.7330 H   0  0  0  0  0  0  0  0  0  0  0  0
   -0.0620    1.7440    1.0220 H   0  0  0  0  0  0  0  0  0  0  0  0
   -0.3870   -0.5710    0.8270 H   0  0  0  0  0  0  0  0  0  0  0  0
    2.0520   -0.3230   -1.0000 H   0  0  0  0  0  0  0  0  0  0  0  0
    2.1270   -0.2180    0.7760 H   0  0  0  0  0  0  0  0  0  0  0  0
   -5.7210   -1.3010   -0.5700 H   0  0  0  0  0  0  0  0  0  0  0  0
    3.4000   -5.0690   -0.0230 H   0  0  0  0  0  0  0  0  0  0  0  0
   -2.9320    2.6390   -0.5910 H   0  0  0  0  0  0  0  0  0  0  0  0
    3.4100    1.4470    1.2940 H   0  0  0  0  0  0  0  0  0  0  0  0
    4.0150    4.1030   -0.3030 H   0  0  0  0  0  0  0  0  0  0  0  0
    3.3670   -2.7850    2.1570 H   0  0  0  0  0  0  0  0  0  0  0  0
 20 24  2  0  0  0  0
 13 24  1  0  0  0  0
 23 24  1  0  0  0  0
 18 24  1  0  0  0  0
 11 23  1  0  0  0  0
 10 11  1  0  0  0  0
 10 22  1  0  0  0  0
  7 22  1  0  0  0  0
  9 10  1  0  0  0  0
  5  6  2  0  0  0  0
  2  5  1  0  0  0  0
  3  6  1  0  0  0  0
  2  7  1  0  0  0  0
  7  8  1  0  0  0  0
  2  4  1  0  0  0  0
 16 25  2  0  0  0  0
  3 21  2  0  0  0  0
  3 12  1  0  0  0  0
  9 19  1  0  0  0  0
  8  9  1  0  0  0  0
 19 25  1  0  0  0  0
  8 14  1  0  0  0  0
  4 12  1  0  0  0  0
  1  4  2  0  0  0  0
 17 25  1  0  0  0  0
 15 25  1  0  0  0  0
  5 26  1  0  0  0  0
  6 27  1  0  0  0  0
  7 28  1  0  0  0  0
  8 29  1  0  0  0  0
  9 30  1  0  0  0  0
 10 31  1  0  0  0  0
 11 32  1  0  0  0  0
 11 33  1  0  0  0  0
 12 34  1  0  0  0  0
 13 35  1  0  0  0  0
 14 36  1  0  0  0  0
 15 37  1  0  0  0  0
 17 38  1  0  0  0  0
 18 39  1  0  0  0  0
M  END
> <OPENEYE_ISO_SMILES>
c1cn(c(=O)[nH]c1=O)[C@H]2[C@H]([C@@H]([C@@H](O2)COP(=O)(O)O)OP(=O)(O)O)O

> <OPENEYE_INCHI>
InChI=1S/C9H14N2O12P2/c12-5-1-2-11(9(14)10-5)8-6(13)7(23-25(18,19)20)4(22-8)3-21-24(15,16)17/h1-2,4,6-8,13H,3H2,(H,10,12,14)(H2,15,16,17)(H2,18,19,20)/t4-,6-,7+,8+/m0/s1

> <OPENEYE_INCHIKEY>
ZPVPRWPOZBXDKD-ZAKLUEHWSA-N

> <FORMULA>
C9H14N2O12P2

$$$$
