6OT
  -OEChem-02242320013D

 17 17  0     0  0  0  0  0  0999 V2000
   -2.9570   -0.0010   -1.4630 N   0  0  0  0  0  0  0  0  0  0  0  0
    1.4100   -1.1980    0.0040 C   0  0  0  0  0  0  0  0  0  0  0  0
    2.1020   -0.0000   -0.0160 C   0  0  0  0  0  0  0  0  0  0  0  0
    1.4100    1.1980    0.0010 C   0  0  0  0  0  0  0  0  0  0  0  0
    0.0270    1.1970    0.0380 C   0  0  0  0  0  0  0  0  0  0  0  0
   -0.6640    0.0000    0.0580 C   0  0  0  0  0  0  0  0  0  0  0  0
    0.0270   -1.1970    0.0400 C   0  0  0  0  0  0  0  0  0  0  0  0
    2.2770   -2.7020   -0.0240 Cl  0  0  0  0  0  0  0  0  0  0  0  0
    2.2770    2.7010   -0.0230 Cl  0  0  0  0  0  0  0  0  0  0  0  0
   -2.4250    0.0000    0.1050 S   0  0  0  0  0  0  0  0  0  0  0  0
   -2.8110    1.2500    0.6590 O   0  0  0  0  0  0  0  0  0  0  0  0
   -2.8120   -1.2490    0.6610 O   0  0  0  0  0  0  0  0  0  0  0  0
   -2.3180   -0.0020   -2.1930 H   0  0  0  0  0  0  0  0  0  0  0  0
   -3.9090   -0.0050   -1.6520 H   0  0  0  0  0  0  0  0  0  0  0  0
    3.1810   -0.0000   -0.0440 H   0  0  0  0  0  0  0  0  0  0  0  0
   -0.5130    2.1320    0.0510 H   0  0  0  0  0  0  0  0  0  0  0  0
   -0.5130   -2.1320    0.0560 H   0  0  0  0  0  0  0  0  0  0  0  0
  1 10  1  0  0  0  0
 10 12  2  0  0  0  0
  6 10  1  0  0  0  0
 10 11  2  0  0  0  0
  2  8  1  0  0  0  0
  6  7  2  0  0  0  0
  2  7  1  0  0  0  0
  5  6  1  0  0  0  0
  2  3  2  0  0  0  0
  4  5  2  0  0  0  0
  3  4  1  0  0  0  0
  4  9  1  0  0  0  0
  1 13  1  0  0  0  0
  1 14  1  0  0  0  0
  3 15  1  0  0  0  0
  5 16  1  0  0  0  0
  7 17  1  0  0  0  0
M  END
> <OPENEYE_ISO_SMILES>
c1c(cc(cc1Cl)Cl)S(=O)(=O)N

> <OPENEYE_INCHI>
InChI=1S/C6H5Cl2NO2S/c7-4-1-5(8)3-6(2-4)12(9,10)11/h1-3H,(H2,9,10,11)

> <OPENEYE_INCHIKEY>
AHNOVNYOUPQVRX-UHFFFAOYSA-N

> <FORMULA>
C6H5Cl2NO2S

$$$$
