APR
  -OEChem-02242320013D

 59 62  0     1  0  0  0  0  0999 V2000
    2.3480   -0.9320    9.0410 N   0  0  0  0  0  0  0  0  0  0  0  0
    1.2650   -1.6220    8.7310 C   0  0  0  0  0  0  0  0  0  0  0  0
    0.5920   -1.4180    7.6180 N   0  0  0  0  0  0  0  0  0  0  0  0
    0.9840   -0.4930    6.7490 C   0  0  0  0  0  0  0  0  0  0  0  0
    2.1280    0.2710    7.0350 C   0  0  0  0  0  0  0  0  0  0  0  0
    2.8160    0.0120    8.2330 C   0  0  0  0  0  0  0  0  0  0  0  0
    3.9520    0.7300    8.5660 N   0  0  0  0  0  0  0  0  0  0  0  0
    2.3070    1.1240    5.9990 N   0  0  0  0  0  0  0  0  0  0  0  0
    1.3650    0.9430    5.1200 C   0  0  0  0  0  0  0  0  0  0  0  0
    0.5230   -0.0440    5.5370 N   0  0  0  0  0  0  0  0  0  0  0  0
   -0.6560   -0.5370    4.8220 C   0  0  1  0  0  0  0  0  0  0  0  0
   -1.9020    0.2900    5.2070 C   0  0  2  0  0  0  0  0  0  0  0  0
   -2.6720   -0.3850    6.2020 O   0  0  0  0  0  0  0  0  0  0  0  0
   -2.7000    0.4000    3.8860 C   0  0  2  0  0  0  0  0  0  0  0  0
   -3.9860   -0.2060    4.0250 O   0  0  0  0  0  0  0  0  0  0  0  0
   -0.5020   -0.3380    3.4000 O   0  0  0  0  0  0  0  0  0  0  0  0
   -1.8420   -0.3770    2.8630 C   0  0  2  0  0  0  0  0  0  0  0  0
   -1.8880    0.3070    1.4960 C   0  0  0  0  0  0  0  0  0  0  0  0
   -1.0320   -0.3860    0.5860 O   0  0  0  0  0  0  0  0  0  0  0  0
   -1.1290    0.3840   -0.8230 P   0  0  2  0  0  0  0  0  0  0  0  0
   -0.6860    1.7860   -0.6510 O   0  0  0  0  0  0  0  0  0  0  0  0
   -2.6520    0.3620   -1.3430 O   0  0  0  0  0  0  0  0  0  0  0  0
   -0.1830   -0.3480   -1.9010 O   0  0  0  0  0  0  0  0  0  0  0  0
   -0.3280    0.4700   -3.2800 P   0  0  2  0  0  0  0  0  0  0  0  0
    0.1010    1.8710   -3.0690 O   0  0  0  0  0  0  0  0  0  0  0  0
   -1.8650    0.4470   -3.7580 O   0  0  0  0  0  0  0  0  0  0  0  0
    0.5950   -0.2100   -4.4080 O   0  0  0  0  0  0  0  0  0  0  0  0
    0.4230    0.5560   -5.6010 C   0  0  0  0  0  0  0  0  0  0  0  0
    0.8530   -1.3850   -6.9960 O   0  0  0  0  0  0  0  0  0  0  0  0
    0.2080   -2.6800   -8.8630 O   0  0  0  0  0  0  0  0  0  0  0  0
    1.0300   -1.6020   -8.4120 C   0  0  1  0  0  0  0  0  0  0  0  0
    1.1850   -0.0640  -10.3190 O   0  0  0  0  0  0  0  0  0  0  0  0
    0.5740   -0.2610   -9.0420 C   0  0  2  0  0  0  0  0  0  0  0  0
    2.3410    1.3260   -8.4460 O   0  0  0  0  0  0  0  0  0  0  0  0
    1.0960    0.7750   -8.0140 C   0  0  2  0  0  0  0  0  0  0  0  0
    1.2790   -0.0410   -6.7200 C   0  0  1  0  0  0  0  0  0  0  0  0
    0.9180   -2.3810    9.4170 H   0  0  0  0  0  0  0  0  0  0  0  0
    4.4160    0.5440    9.3970 H   0  0  0  0  0  0  0  0  0  0  0  0
    4.2860    1.4150    7.9660 H   0  0  0  0  0  0  0  0  0  0  0  0
    1.2650    1.4930    4.1960 H   0  0  0  0  0  0  0  0  0  0  0  0
   -0.8190   -1.5920    5.0420 H   0  0  0  0  0  0  0  0  0  0  0  0
   -1.6080    1.2790    5.5590 H   0  0  0  0  0  0  0  0  0  0  0  0
   -3.4640    0.1490    6.3540 H   0  0  0  0  0  0  0  0  0  0  0  0
   -2.8010    1.4430    3.5850 H   0  0  0  0  0  0  0  0  0  0  0  0
   -4.4740    0.3190    4.6730 H   0  0  0  0  0  0  0  0  0  0  0  0
   -2.1890   -1.4070    2.7820 H   0  0  0  0  0  0  0  0  0  0  0  0
   -2.9100    0.2930    1.1160 H   0  0  0  0  0  0  0  0  0  0  0  0
   -1.5520    1.3400    1.5950 H   0  0  0  0  0  0  0  0  0  0  0  0
   -2.9010   -0.5660   -1.4420 H   0  0  0  0  0  0  0  0  0  0  0  0
   -2.1050   -0.4800   -3.8840 H   0  0  0  0  0  0  0  0  0  0  0  0
   -0.6250    0.5390   -5.8970 H   0  0  0  0  0  0  0  0  0  0  0  0
    0.7320    1.5860   -5.4180 H   0  0  0  0  0  0  0  0  0  0  0  0
    0.4950   -3.4690   -8.3850 H   0  0  0  0  0  0  0  0  0  0  0  0
    2.0780   -1.7970   -8.6420 H   0  0  0  0  0  0  0  0  0  0  0  0
    0.8920   -0.7920  -10.8840 H   0  0  0  0  0  0  0  0  0  0  0  0
   -0.5120   -0.2190   -9.1220 H   0  0  0  0  0  0  0  0  0  0  0  0
    2.1720    1.7720   -9.2880 H   0  0  0  0  0  0  0  0  0  0  0  0
    0.3610    1.5670   -7.8640 H   0  0  0  0  0  0  0  0  0  0  0  0
    2.3290   -0.0380   -6.4250 H   0  0  0  0  0  0  0  0  0  0  0  0
  1  2  1  0  0  0  0
  1  6  2  0  0  0  0
  2  3  2  0  0  0  0
  2 37  1  0  0  0  0
  3  4  1  0  0  0  0
  4  5  2  0  0  0  0
  4 10  1  0  0  0  0
  5  6  1  0  0  0  0
  5  8  1  0  0  0  0
  6  7  1  0  0  0  0
  7 38  1  0  0  0  0
  7 39  1  0  0  0  0
  8  9  2  0  0  0  0
  9 10  1  0  0  0  0
  9 40  1  0  0  0  0
 10 11  1  0  0  0  0
 11 12  1  0  0  0  0
 11 16  1  0  0  0  0
 11 41  1  0  0  0  0
 12 13  1  0  0  0  0
 12 14  1  0  0  0  0
 12 42  1  0  0  0  0
 13 43  1  0  0  0  0
 14 15  1  0  0  0  0
 14 17  1  0  0  0  0
 14 44  1  0  0  0  0
 15 45  1  0  0  0  0
 16 17  1  0  0  0  0
 17 18  1  0  0  0  0
 17 46  1  0  0  0  0
 18 19  1  0  0  0  0
 18 47  1  0  0  0  0
 18 48  1  0  0  0  0
 19 20  1  0  0  0  0
 20 21  2  0  0  0  0
 20 22  1  0  0  0  0
 20 23  1  0  0  0  0
 22 49  1  0  0  0  0
 23 24  1  0  0  0  0
 24 25  2  0  0  0  0
 24 26  1  0  0  0  0
 24 27  1  0  0  0  0
 26 50  1  0  0  0  0
 27 28  1  0  0  0  0
 28 36  1  0  0  0  0
 28 51  1  0  0  0  0
 28 52  1  0  0  0  0
 29 31  1  0  0  0  0
 29 36  1  0  0  0  0
 30 31  1  0  0  0  0
 30 53  1  0  0  0  0
 31 33  1  0  0  0  0
 31 54  1  0  0  0  0
 32 33  1  0  0  0  0
 32 55  1  0  0  0  0
 33 35  1  0  0  0  0
 33 56  1  0  0  0  0
 34 35  1  0  0  0  0
 34 57  1  0  0  0  0
 35 36  1  0  0  0  0
 35 58  1  0  0  0  0
 36 59  1  0  0  0  0
M  END
> <OPENEYE_ISO_SMILES>
c1nc(c2c(n1)n(cn2)[C@H]3[C@@H]([C@@H]([C@H](O3)CO[P@](=O)(O)O[P@](=O)(O)OC[C@@H]4[C@H]([C@H]([C@@H](O4)O)O)O)O)O)N

> <OPENEYE_INCHI>
InChI=1S/C15H23N5O14P2/c16-12-7-13(18-3-17-12)20(4-19-7)14-10(23)8(21)5(32-14)1-30-35(26,27)34-36(28,29)31-2-6-9(22)11(24)15(25)33-6/h3-6,8-11,14-15,21-25H,1-2H2,(H,26,27)(H,28,29)(H2,16,17,18)/t5-,6-,8-,9-,10-,11-,14-,15-/m1/s1

> <OPENEYE_INCHIKEY>
SRNWOUGRCWSEMX-KEOHHSTQSA-N

> <FORMULA>
C15H23N5O14P2

$$$$
