WXB
  -OEChem-02242320043D

 37 39  0     0  0  0  0  0  0999 V2000
   -2.6790    1.2580   -0.6470 C   0  0  0  0  0  0  0  0  0  0  0  0
   -4.4340    0.1130    0.4080 C   0  0  0  0  0  0  0  0  0  0  0  0
   -2.3270   -0.9700    0.3770 C   0  0  0  0  0  0  0  0  0  0  0  0
   -0.2860   -2.0440    0.3580 C   0  0  0  0  0  0  0  0  0  0  0  0
    0.3200   -0.9930   -0.3360 C   0  0  0  0  0  0  0  0  0  0  0  0
   -1.7900    0.1290   -0.3230 C   0  0  0  0  0  0  0  0  0  0  0  0
    1.7510   -1.0580   -0.6940 C   0  0  0  0  0  0  0  0  0  0  0  0
    3.8790   -0.0170   -1.0980 C   0  0  0  0  0  0  0  0  0  0  0  0
    4.8120   -0.4540    0.0570 C   0  0  0  0  0  0  0  0  0  0  0  0
    4.9490    0.6300    1.0420 C   0  0  0  0  0  0  0  0  0  0  0  0
    3.6460    1.0170    1.7350 C   0  0  0  0  0  0  0  0  0  0  0  0
    2.9010    2.0130    0.8800 C   0  0  0  0  0  0  0  0  0  0  0  0
    1.9260    1.2800   -0.0580 C   0  0  0  0  0  0  0  0  0  0  0  0
   -0.4490    0.1240   -0.6870 C   0  0  0  0  0  0  0  0  0  0  0  0
    2.5150    0.0490   -0.6220 N   0  0  0  0  0  0  0  0  0  0  0  0
   -1.5600   -2.0040    0.6860 N   0  0  0  0  0  0  0  0  0  0  0  0
   -3.6620   -0.9390    0.7260 N   0  0  0  0  0  0  0  0  0  0  0  0
   -3.9710    1.1840   -0.2570 N   0  0  0  0  0  0  0  0  0  0  0  0
    2.2390   -2.1120   -1.0540 O   0  0  0  0  0  0  0  0  0  0  0  0
   -5.6040    0.0960    0.7370 O   0  0  0  0  0  0  0  0  0  0  0  0
   -2.2620    2.2310   -1.2450 O   0  0  0  0  0  0  0  0  0  0  0  0
    0.3030   -2.9080    0.6300 H   0  0  0  0  0  0  0  0  0  0  0  0
    4.1850    0.9640   -1.4610 H   0  0  0  0  0  0  0  0  0  0  0  0
    3.9440   -0.7410   -1.9110 H   0  0  0  0  0  0  0  0  0  0  0  0
    4.3940   -1.3350    0.5450 H   0  0  0  0  0  0  0  0  0  0  0  0
    5.7940   -0.7010   -0.3460 H   0  0  0  0  0  0  0  0  0  0  0  0
    5.6660    0.3190    1.8010 H   0  0  0  0  0  0  0  0  0  0  0  0
    5.3460    1.5100    0.5350 H   0  0  0  0  0  0  0  0  0  0  0  0
    3.0310    0.1280    1.8760 H   0  0  0  0  0  0  0  0  0  0  0  0
    3.8680    1.4640    2.7040 H   0  0  0  0  0  0  0  0  0  0  0  0
    2.3420    2.6930    1.5230 H   0  0  0  0  0  0  0  0  0  0  0  0
    3.6150    2.5820    0.2850 H   0  0  0  0  0  0  0  0  0  0  0  0
    1.0270    1.0190    0.5000 H   0  0  0  0  0  0  0  0  0  0  0  0
    1.6540    1.9460   -0.8760 H   0  0  0  0  0  0  0  0  0  0  0  0
   -0.0130    0.9550   -1.2230 H   0  0  0  0  0  0  0  0  0  0  0  0
   -4.0490   -1.6870    1.2080 H   0  0  0  0  0  0  0  0  0  0  0  0
   -4.5740    1.9160   -0.4600 H   0  0  0  0  0  0  0  0  0  0  0  0
  7 19  2  0  0  0  0
  8  9  1  0  0  0  0
  8 15  1  0  0  0  0
  9 10  1  0  0  0  0
  7 15  1  0  0  0  0
  5  7  1  0  0  0  0
 13 15  1  0  0  0  0
  4  5  2  0  0  0  0
  5 14  1  0  0  0  0
  4 16  1  0  0  0  0
  6 14  2  0  0  0  0
 10 11  1  0  0  0  0
  3 16  2  0  0  0  0
  3  6  1  0  0  0  0
  1  6  1  0  0  0  0
 12 13  1  0  0  0  0
  3 17  1  0  0  0  0
 11 12  1  0  0  0  0
  1 21  2  0  0  0  0
  1 18  1  0  0  0  0
  2 17  1  0  0  0  0
  2 18  1  0  0  0  0
  2 20  2  0  0  0  0
  4 22  1  0  0  0  0
  8 23  1  0  0  0  0
  8 24  1  0  0  0  0
  9 25  1  0  0  0  0
  9 26  1  0  0  0  0
 10 27  1  0  0  0  0
 10 28  1  0  0  0  0
 11 29  1  0  0  0  0
 11 30  1  0  0  0  0
 12 31  1  0  0  0  0
 12 32  1  0  0  0  0
 13 33  1  0  0  0  0
 13 34  1  0  0  0  0
 14 35  1  0  0  0  0
 17 36  1  0  0  0  0
 18 37  1  0  0  0  0
M  END
> <OPENEYE_ISO_SMILES>
c1c(cnc2c1c(=O)[nH]c(=O)[nH]2)C(=O)N3CCCCCC3

> <OPENEYE_INCHI>
InChI=1S/C14H16N4O3/c19-12-10-7-9(8-15-11(10)16-14(21)17-12)13(20)18-5-3-1-2-4-6-18/h7-8H,1-6H2,(H2,15,16,17,19,21)

> <OPENEYE_INCHIKEY>
CEJLELZDXLZHDJ-UHFFFAOYSA-N

> <FORMULA>
C14H16N4O3

$$$$
