YMS
  -OEChem-02242320043D

 77 79  0     1  0  0  0  0  0999 V2000
    1.5010   -0.8470    0.2660 C   0  0  0  0  0  0  0  0  0  0  0  0
   -0.8700   -0.8810   -0.2970 C   0  0  1  0  0  0  0  0  0  0  0  0
   -1.2140   -2.3360   -0.6210 C   0  0  0  0  0  0  0  0  0  0  0  0
   -2.2480   -2.3780   -1.7480 C   0  0  0  0  0  0  0  0  0  0  0  0
   -1.6140   -1.8590   -3.0400 C   0  0  0  0  0  0  0  0  0  0  0  0
   -2.7210   -3.8180   -1.9540 C   0  0  0  0  0  0  0  0  0  0  0  0
   -2.0830   -0.1930    0.2730 C   0  0  0  0  0  0  0  0  0  0  0  0
   -4.1820    1.0130   -0.0060 C   0  0  1  0  0  0  0  0  0  0  0  0
   -4.9290    0.1620    1.0230 C   0  0  0  0  0  0  0  0  0  0  0  0
   -5.5140   -1.0740    0.3360 C   0  0  1  0  0  0  0  0  0  0  0  0
   -6.2510   -1.9370    1.3360 C   0  0  0  0  0  0  0  0  0  0  0  0
   -7.6260   -1.8080   -0.5320 C   0  0  0  0  0  0  0  0  0  0  0  0
   -6.6010   -0.6620   -0.6840 C   0  0  0  0  0  0  0  0  0  0  0  0
   -3.6580    2.2830    0.6660 C   0  0  2  0  0  0  0  0  0  0  0  0
    3.8550   -0.7230    0.6380 C   0  0  0  0  0  0  0  0  0  0  0  0
    4.8010   -1.2960    1.6960 C   0  0  0  0  0  0  0  0  0  0  0  0
    6.2290   -1.3100    1.1480 C   0  0  0  0  0  0  0  0  0  0  0  0
    6.6560    0.1180    0.8000 C   0  0  0  0  0  0  0  0  0  0  0  0
    8.0630    0.1040    0.2610 C   0  0  0  0  0  0  0  0  0  0  0  0
    8.3580   -0.6160   -0.8820 C   0  0  0  0  0  0  0  0  0  0  0  0
    9.6490   -0.6290   -1.3770 C   0  0  0  0  0  0  0  0  0  0  0  0
   10.6450    0.0770   -0.7290 C   0  0  0  0  0  0  0  0  0  0  0  0
   10.3500    0.7980    0.4130 C   0  0  0  0  0  0  0  0  0  0  0  0
    9.0580    0.8150    0.9050 C   0  0  0  0  0  0  0  0  0  0  0  0
    5.7100    0.6900   -0.2570 C   0  0  0  0  0  0  0  0  0  0  0  0
    4.2820    0.7040    0.2910 C   0  0  0  0  0  0  0  0  0  0  0  0
    0.2190   -0.8430    0.6820 N   0  0  0  0  0  0  0  0  0  0  0  0
   -3.0570    0.2470   -0.5480 N   0  0  0  0  0  0  0  0  0  0  0  0
   -7.4320   -2.3290    0.8260 N   0  0  0  0  0  0  0  0  0  0  0  0
    1.7550   -0.9700   -0.9160 O   0  0  0  0  0  0  0  0  0  0  0  0
   -5.8370   -2.2320    2.4370 O   0  0  0  0  0  0  0  0  0  0  0  0
   -4.7520    3.0100    1.2290 O   0  0  0  0  0  0  0  0  0  0  0  0
   -2.1840   -0.0350    1.4720 O   0  0  0  0  0  0  0  0  0  0  0  0
    2.4990   -0.7100    1.1580 O   0  0  0  0  0  0  0  0  0  0  0  0
   -0.5570   -0.3700   -1.2080 H   0  0  0  0  0  0  0  0  0  0  0  0
   -0.3120   -2.8620   -0.9360 H   0  0  0  0  0  0  0  0  0  0  0  0
   -1.6240   -2.8190    0.2670 H   0  0  0  0  0  0  0  0  0  0  0  0
   -3.0990   -1.7500   -1.4830 H   0  0  0  0  0  0  0  0  0  0  0  0
   -0.8080   -2.5270   -3.3430 H   0  0  0  0  0  0  0  0  0  0  0  0
   -2.3700   -1.8210   -3.8250 H   0  0  0  0  0  0  0  0  0  0  0  0
   -1.2140   -0.8590   -2.8730 H   0  0  0  0  0  0  0  0  0  0  0  0
   -3.1720   -4.1880   -1.0330 H   0  0  0  0  0  0  0  0  0  0  0  0
   -3.4570   -3.8480   -2.7560 H   0  0  0  0  0  0  0  0  0  0  0  0
   -1.8700   -4.4460   -2.2180 H   0  0  0  0  0  0  0  0  0  0  0  0
   -4.8610    1.2830   -0.8150 H   0  0  0  0  0  0  0  0  0  0  0  0
   -4.2390   -0.1510    1.8060 H   0  0  0  0  0  0  0  0  0  0  0  0
   -5.7360    0.7490    1.4630 H   0  0  0  0  0  0  0  0  0  0  0  0
   -4.7260   -1.6440   -0.1560 H   0  0  0  0  0  0  0  0  0  0  0  0
   -8.6400   -1.4250   -0.6470 H   0  0  0  0  0  0  0  0  0  0  0  0
   -7.4310   -2.5880   -1.2680 H   0  0  0  0  0  0  0  0  0  0  0  0
   -7.0450    0.2960   -0.4150 H   0  0  0  0  0  0  0  0  0  0  0  0
   -6.1960   -0.6320   -1.6950 H   0  0  0  0  0  0  0  0  0  0  0  0
   -2.8140    3.3140   -0.5650 S   0  0  0  0  0  0  0  0  0  0  0  0
   -2.9570    2.0130    1.4560 H   0  0  0  0  0  0  0  0  0  0  0  0
    3.8940   -1.3430   -0.2580 H   0  0  0  0  0  0  0  0  0  0  0  0
    4.7620   -0.6760    2.5920 H   0  0  0  0  0  0  0  0  0  0  0  0
    4.4970   -2.3120    1.9440 H   0  0  0  0  0  0  0  0  0  0  0  0
    6.9030   -1.7170    1.9010 H   0  0  0  0  0  0  0  0  0  0  0  0
    6.2690   -1.9290    0.2520 H   0  0  0  0  0  0  0  0  0  0  0  0
    6.6170    0.7370    1.6960 H   0  0  0  0  0  0  0  0  0  0  0  0
    7.5800   -1.1680   -1.3880 H   0  0  0  0  0  0  0  0  0  0  0  0
    9.8790   -1.1920   -2.2700 H   0  0  0  0  0  0  0  0  0  0  0  0
   11.6530    0.0670   -1.1160 H   0  0  0  0  0  0  0  0  0  0  0  0
   11.1280    1.3500    0.9190 H   0  0  0  0  0  0  0  0  0  0  0  0
    8.8270    1.3810    1.7960 H   0  0  0  0  0  0  0  0  0  0  0  0
    6.0150    1.7070   -0.5050 H   0  0  0  0  0  0  0  0  0  0  0  0
    5.7490    0.0700   -1.1530 H   0  0  0  0  0  0  0  0  0  0  0  0
    3.6080    1.1120   -0.4630 H   0  0  0  0  0  0  0  0  0  0  0  0
    4.2420    1.3240    1.1860 H   0  0  0  0  0  0  0  0  0  0  0  0
    0.0170   -0.8140    1.6310 H   0  0  0  0  0  0  0  0  0  0  0  0
   -3.0130    0.0560   -1.4980 H   0  0  0  0  0  0  0  0  0  0  0  0
   -8.0730   -2.8850    1.2960 H   0  0  0  0  0  0  0  0  0  0  0  0
   -5.2490    2.5190    1.8960 H   0  0  0  0  0  0  0  0  0  0  0  0
   -3.6440    3.5130   -1.7010 O   0  0  0  0  0  0  0  0  0  0  0  0
   -2.1600    4.4070    0.0650 O   0  0  0  0  0  0  0  0  0  0  0  0
   -1.6780    2.4410   -1.0770 O   0  0  0  0  0  0  0  0  0  0  0  0
   -1.1300    2.8650   -1.7520 H   0  0  0  0  0  0  0  0  0  0  0  0
 11 31  2  0  0  0  0
 11 29  1  0  0  0  0
 10 11  1  0  0  0  0
 12 29  1  0  0  0  0
  9 10  1  0  0  0  0
  8  9  1  0  0  0  0
 10 13  1  0  0  0  0
  8 14  1  0  0  0  0
 14 32  1  0  0  0  0
 12 13  1  0  0  0  0
  8 28  1  0  0  0  0
  7 28  1  0  0  0  0
  1 30  2  0  0  0  0
  2  7  1  0  0  0  0
  7 33  2  0  0  0  0
  4  6  1  0  0  0  0
  2  3  1  0  0  0  0
  2 27  1  0  0  0  0
  1 27  1  0  0  0  0
  1 34  1  0  0  0  0
 20 21  2  0  0  0  0
 21 22  1  0  0  0  0
 19 20  1  0  0  0  0
 16 17  1  0  0  0  0
 17 18  1  0  0  0  0
 15 16  1  0  0  0  0
 15 34  1  0  0  0  0
 15 26  1  0  0  0  0
  3  4  1  0  0  0  0
  4  5  1  0  0  0  0
 22 23  2  0  0  0  0
 25 26  1  0  0  0  0
 18 25  1  0  0  0  0
 18 19  1  0  0  0  0
 19 24  2  0  0  0  0
 23 24  1  0  0  0  0
  2 35  1  0  0  0  0
  3 36  1  0  0  0  0
  3 37  1  0  0  0  0
  4 38  1  0  0  0  0
  5 39  1  0  0  0  0
  5 40  1  0  0  0  0
  5 41  1  0  0  0  0
  6 42  1  0  0  0  0
  6 43  1  0  0  0  0
  6 44  1  0  0  0  0
  8 45  1  0  0  0  0
  9 46  1  0  0  0  0
  9 47  1  0  0  0  0
 10 48  1  0  0  0  0
 12 49  1  0  0  0  0
 12 50  1  0  0  0  0
 13 51  1  0  0  0  0
 13 52  1  0  0  0  0
 14 53  1  0  0  0  0
 14 54  1  0  0  0  0
 15 55  1  0  0  0  0
 16 56  1  0  0  0  0
 16 57  1  0  0  0  0
 17 58  1  0  0  0  0
 17 59  1  0  0  0  0
 18 60  1  0  0  0  0
 20 61  1  0  0  0  0
 21 62  1  0  0  0  0
 22 63  1  0  0  0  0
 23 64  1  0  0  0  0
 24 65  1  0  0  0  0
 25 66  1  0  0  0  0
 25 67  1  0  0  0  0
 26 68  1  0  0  0  0
 26 69  1  0  0  0  0
 27 70  1  0  0  0  0
 28 71  1  0  0  0  0
 29 72  1  0  0  0  0
 32 73  1  0  0  0  0
 53 74  2  0  0  0  0
 53 75  2  0  0  0  0
 53 76  1  0  0  0  0
 76 77  1  0  0  0  0
M  END
> <OPENEYE_ISO_SMILES>
CC(C)C[C@@H](C(=O)N[C@@H](C[C@@H]1CCNC1=O)[C@H](O)S(=O)(=O)O)NC(=O)OC2CCC(CC2)c3ccccc3

> <OPENEYE_INCHI>
InChI=1S/C26H39N3O8S/c1-16(2)14-21(24(31)28-22(25(32)38(34,35)36)15-19-12-13-27-23(19)30)29-26(33)37-20-10-8-18(9-11-20)17-6-4-3-5-7-17/h3-7,16,18-22,25,32H,8-15H2,1-2H3,(H,27,30)(H,28,31)(H,29,33)(H,34,35,36)/t18-,19-,20-,21-,22-,25+/m0/s1

> <OPENEYE_INCHIKEY>
GQBZOCZYIKJBAR-JACXQYEBSA-N

> <FORMULA>
C26H39N3O8S

$$$$
