YMV
  -OEChem-02242320043D

 77 79  0     1  0  0  0  0  0999 V2000
    1.8720   -1.1260    0.1420 C   0  0  0  0  0  0  0  0  0  0  0  0
   -0.4820   -1.3500   -0.4440 C   0  0  1  0  0  0  0  0  0  0  0  0
   -0.6370   -2.7430   -1.0590 C   0  0  0  0  0  0  0  0  0  0  0  0
   -1.6790   -2.6930   -2.1790 C   0  0  0  0  0  0  0  0  0  0  0  0
   -1.1500   -1.8350   -3.3290 C   0  0  0  0  0  0  0  0  0  0  0  0
   -1.9520   -4.1110   -2.6840 C   0  0  0  0  0  0  0  0  0  0  0  0
   -1.7670   -0.9560    0.2380 C   0  0  0  0  0  0  0  0  0  0  0  0
   -3.9960    0.0270    0.1890 C   0  0  1  0  0  0  0  0  0  0  0  0
   -4.6150    1.1620   -0.6300 C   0  0  0  0  0  0  0  0  0  0  0  0
   -3.6330    2.3330   -0.7040 C   0  0  1  0  0  0  0  0  0  0  0  0
   -4.2190    3.4650   -1.5180 C   0  0  0  0  0  0  0  0  0  0  0  0
   -3.2880    4.4500    0.3680 C   0  0  0  0  0  0  0  0  0  0  0  0
   -3.4160    2.9460    0.6980 C   0  0  0  0  0  0  0  0  0  0  0  0
   -5.0030   -1.1170    0.3190 C   0  0  1  0  0  0  0  0  0  0  0  0
    4.1960   -0.7800    0.5600 C   0  0  0  0  0  0  0  0  0  0  0  0
    5.2220   -1.4250    1.4940 C   0  0  0  0  0  0  0  0  0  0  0  0
    6.6330   -1.1480    0.9710 C   0  0  0  0  0  0  0  0  0  0  0  0
    6.8710    0.3620    0.9180 C   0  0  0  0  0  0  0  0  0  0  0  0
    8.2600    0.6340    0.4030 C   0  0  0  0  0  0  0  0  0  0  0  0
    8.6280    0.1990   -0.8570 C   0  0  0  0  0  0  0  0  0  0  0  0
    9.9030    0.4480   -1.3290 C   0  0  0  0  0  0  0  0  0  0  0  0
   10.8100    1.1330   -0.5420 C   0  0  0  0  0  0  0  0  0  0  0  0
   10.4420    1.5700    0.7160 C   0  0  0  0  0  0  0  0  0  0  0  0
    9.1650    1.3250    1.1870 C   0  0  0  0  0  0  0  0  0  0  0  0
    5.8450    1.0070   -0.0170 C   0  0  0  0  0  0  0  0  0  0  0  0
    4.4340    0.7310    0.5060 C   0  0  0  0  0  0  0  0  0  0  0  0
    0.6060   -1.3670    0.5360 N   0  0  0  0  0  0  0  0  0  0  0  0
   -2.7890   -0.4590   -0.4860 N   0  0  0  0  0  0  0  0  0  0  0  0
   -4.0160    4.6370   -0.8920 N   0  0  0  0  0  0  0  0  0  0  0  0
    2.1240   -0.9790   -1.0380 O   0  0  0  0  0  0  0  0  0  0  0  0
   -4.7890    3.3340   -2.5800 O   0  0  0  0  0  0  0  0  0  0  0  0
   -4.3830   -2.2250    0.9750 O   0  0  0  0  0  0  0  0  0  0  0  0
   -1.8810   -1.0870    1.4380 O   0  0  0  0  0  0  0  0  0  0  0  0
    2.8570   -1.0420    1.0560 O   0  0  0  0  0  0  0  0  0  0  0  0
   -0.2520   -0.6300   -1.2300 H   0  0  0  0  0  0  0  0  0  0  0  0
    0.3200   -3.0680   -1.4670 H   0  0  0  0  0  0  0  0  0  0  0  0
   -0.9620   -3.4440   -0.2910 H   0  0  0  0  0  0  0  0  0  0  0  0
   -2.6020   -2.2590   -1.7960 H   0  0  0  0  0  0  0  0  0  0  0  0
   -0.2630   -2.3040   -3.7550 H   0  0  0  0  0  0  0  0  0  0  0  0
   -1.9170   -1.7440   -4.0980 H   0  0  0  0  0  0  0  0  0  0  0  0
   -0.8920   -0.8440   -2.9550 H   0  0  0  0  0  0  0  0  0  0  0  0
   -2.3290   -4.7220   -1.8640 H   0  0  0  0  0  0  0  0  0  0  0  0
   -2.6940   -4.0750   -3.4820 H   0  0  0  0  0  0  0  0  0  0  0  0
   -1.0290   -4.5450   -3.0660 H   0  0  0  0  0  0  0  0  0  0  0  0
   -3.7340    0.3960    1.1810 H   0  0  0  0  0  0  0  0  0  0  0  0
   -4.8330    0.8060   -1.6370 H   0  0  0  0  0  0  0  0  0  0  0  0
   -5.5380    1.4920   -0.1530 H   0  0  0  0  0  0  0  0  0  0  0  0
   -2.6830    2.0070   -1.1290 H   0  0  0  0  0  0  0  0  0  0  0  0
   -3.7400    5.0500    1.1580 H   0  0  0  0  0  0  0  0  0  0  0  0
   -2.2390    4.7210    0.2430 H   0  0  0  0  0  0  0  0  0  0  0  0
   -4.2750    2.7600    1.3430 H   0  0  0  0  0  0  0  0  0  0  0  0
   -2.5000    2.5680    1.1530 H   0  0  0  0  0  0  0  0  0  0  0  0
   -6.4290   -0.5580    1.2920 S   0  0  0  0  0  0  0  0  0  0  0  0
   -5.3370   -1.4210   -0.6730 H   0  0  0  0  0  0  0  0  0  0  0  0
    4.3020   -1.2000   -0.4410 H   0  0  0  0  0  0  0  0  0  0  0  0
    5.1170   -1.0050    2.4940 H   0  0  0  0  0  0  0  0  0  0  0  0
    5.0530   -2.5010    1.5320 H   0  0  0  0  0  0  0  0  0  0  0  0
    7.3640   -1.6080    1.6370 H   0  0  0  0  0  0  0  0  0  0  0  0
    6.7390   -1.5680   -0.0290 H   0  0  0  0  0  0  0  0  0  0  0  0
    6.7650    0.7820    1.9180 H   0  0  0  0  0  0  0  0  0  0  0  0
    7.9200   -0.3370   -1.4710 H   0  0  0  0  0  0  0  0  0  0  0  0
   10.1910    0.1070   -2.3120 H   0  0  0  0  0  0  0  0  0  0  0  0
   11.8070    1.3270   -0.9110 H   0  0  0  0  0  0  0  0  0  0  0  0
   11.1500    2.1050    1.3310 H   0  0  0  0  0  0  0  0  0  0  0  0
    8.8760    1.6690    2.1690 H   0  0  0  0  0  0  0  0  0  0  0  0
    6.0140    2.0830   -0.0550 H   0  0  0  0  0  0  0  0  0  0  0  0
    5.9500    0.5870   -1.0170 H   0  0  0  0  0  0  0  0  0  0  0  0
    3.7030    1.1900   -0.1590 H   0  0  0  0  0  0  0  0  0  0  0  0
    4.3280    1.1510    1.5070 H   0  0  0  0  0  0  0  0  0  0  0  0
    0.4160   -1.5530    1.4690 H   0  0  0  0  0  0  0  0  0  0  0  0
   -2.7260   -0.4230   -1.4530 H   0  0  0  0  0  0  0  0  0  0  0  0
   -4.3140    5.4970   -1.2300 H   0  0  0  0  0  0  0  0  0  0  0  0
   -3.6120   -2.5760    0.5090 H   0  0  0  0  0  0  0  0  0  0  0  0
   -7.4030   -1.5890    1.3850 O   0  0  0  0  0  0  0  0  0  0  0  0
   -5.9980    0.1490    2.4470 O   0  0  0  0  0  0  0  0  0  0  0  0
   -7.0880    0.5040    0.4250 O   0  0  0  0  0  0  0  0  0  0  0  0
   -7.8770    0.9010    0.8200 H   0  0  0  0  0  0  0  0  0  0  0  0
 11 31  2  0  0  0  0
 11 29  1  0  0  0  0
 10 11  1  0  0  0  0
 12 29  1  0  0  0  0
  9 10  1  0  0  0  0
  8  9  1  0  0  0  0
 14 32  1  0  0  0  0
 10 13  1  0  0  0  0
  8 14  1  0  0  0  0
 12 13  1  0  0  0  0
  8 28  1  0  0  0  0
  7 28  1  0  0  0  0
  1 30  2  0  0  0  0
  2  7  1  0  0  0  0
  7 33  2  0  0  0  0
  4  6  1  0  0  0  0
  2  3  1  0  0  0  0
  2 27  1  0  0  0  0
  1 27  1  0  0  0  0
  1 34  1  0  0  0  0
 20 21  2  0  0  0  0
 21 22  1  0  0  0  0
 19 20  1  0  0  0  0
 16 17  1  0  0  0  0
 17 18  1  0  0  0  0
 15 16  1  0  0  0  0
 15 34  1  0  0  0  0
 15 26  1  0  0  0  0
  3  4  1  0  0  0  0
  4  5  1  0  0  0  0
 25 26  1  0  0  0  0
 18 25  1  0  0  0  0
 22 23  2  0  0  0  0
 18 19  1  0  0  0  0
 19 24  2  0  0  0  0
 23 24  1  0  0  0  0
  2 35  1  0  0  0  0
  3 36  1  0  0  0  0
  3 37  1  0  0  0  0
  4 38  1  0  0  0  0
  5 39  1  0  0  0  0
  5 40  1  0  0  0  0
  5 41  1  0  0  0  0
  6 42  1  0  0  0  0
  6 43  1  0  0  0  0
  6 44  1  0  0  0  0
  8 45  1  0  0  0  0
  9 46  1  0  0  0  0
  9 47  1  0  0  0  0
 10 48  1  0  0  0  0
 12 49  1  0  0  0  0
 12 50  1  0  0  0  0
 13 51  1  0  0  0  0
 13 52  1  0  0  0  0
 14 53  1  0  0  0  0
 14 54  1  0  0  0  0
 15 55  1  0  0  0  0
 16 56  1  0  0  0  0
 16 57  1  0  0  0  0
 17 58  1  0  0  0  0
 17 59  1  0  0  0  0
 18 60  1  0  0  0  0
 20 61  1  0  0  0  0
 21 62  1  0  0  0  0
 22 63  1  0  0  0  0
 23 64  1  0  0  0  0
 24 65  1  0  0  0  0
 25 66  1  0  0  0  0
 25 67  1  0  0  0  0
 26 68  1  0  0  0  0
 26 69  1  0  0  0  0
 27 70  1  0  0  0  0
 28 71  1  0  0  0  0
 29 72  1  0  0  0  0
 32 73  1  0  0  0  0
 53 74  2  0  0  0  0
 53 75  2  0  0  0  0
 53 76  1  0  0  0  0
 76 77  1  0  0  0  0
M  END
> <OPENEYE_ISO_SMILES>
CC(C)C[C@@H](C(=O)N[C@@H](C[C@@H]1CCNC1=O)[C@@H](O)S(=O)(=O)O)NC(=O)OC2CCC(CC2)c3ccccc3

> <OPENEYE_INCHI>
InChI=1S/C26H39N3O8S/c1-16(2)14-21(24(31)28-22(25(32)38(34,35)36)15-19-12-13-27-23(19)30)29-26(33)37-20-10-8-18(9-11-20)17-6-4-3-5-7-17/h3-7,16,18-22,25,32H,8-15H2,1-2H3,(H,27,30)(H,28,31)(H,29,33)(H,34,35,36)/t18-,19-,20-,21-,22-,25-/m0/s1

> <OPENEYE_INCHIKEY>
GQBZOCZYIKJBAR-GAJBLSCZSA-N

> <FORMULA>
C26H39N3O8S

$$$$
