LPZ
  -OEChem-02242320033D

 39 40  0     0  0  0  0  0  0999 V2000
   -4.6670   -0.8510    0.0190 N   0  3  0  0  0  0  0  0  0  0  0  0
    2.5480    0.4960   -0.0720 C   0  0  0  0  0  0  0  0  0  0  0  0
    3.6780    1.2480   -0.3580 C   0  0  0  0  0  0  0  0  0  0  0  0
    4.9230    0.6480   -0.3610 C   0  0  0  0  0  0  0  0  0  0  0  0
    0.2030    0.2490    0.2350 C   0  0  0  0  0  0  0  0  0  0  0  0
   -1.0610    1.0670    0.1920 C   0  0  0  0  0  0  0  0  0  0  0  0
   -3.4020   -1.5830   -0.1280 C   0  0  0  0  0  0  0  0  0  0  0  0
   -5.7140   -1.5260   -0.7590 C   0  0  0  0  0  0  0  0  0  0  0  0
   -2.2500    0.4860    0.4470 N   0  0  0  0  0  0  0  0  0  0  0  0
    6.4010   -1.3510   -0.0820 C   0  0  0  0  0  0  0  0  0  0  0  0
    1.3220    1.0840   -0.0680 O   0  0  0  0  0  0  0  0  0  0  0  0
    5.0420   -0.7000   -0.0790 C   0  0  0  0  0  0  0  0  0  0  0  0
   -4.5070    0.5240   -0.4710 C   0  0  0  0  0  0  0  0  0  0  0  0
   -3.4970    1.2650    0.4110 C   0  0  0  0  0  0  0  0  0  0  0  0
    3.9170   -1.4510    0.2070 C   0  0  0  0  0  0  0  0  0  0  0  0
    2.6700   -0.8580    0.2060 C   0  0  0  0  0  0  0  0  0  0  0  0
   -2.3370   -0.9470    0.7710 C   0  0  0  0  0  0  0  0  0  0  0  0
   -1.0090    2.2500   -0.0730 O   0  0  0  0  0  0  0  0  0  0  0  0
   -4.9320   -0.8320    0.9920 H   0  0  0  0  0  0  0  0  0  0  0  0
    3.5850    2.3010   -0.5790 H   0  0  0  0  0  0  0  0  0  0  0  0
    5.8030    1.2330   -0.5840 H   0  0  0  0  0  0  0  0  0  0  0  0
    0.3270   -0.1770    1.2310 H   0  0  0  0  0  0  0  0  0  0  0  0
    0.1400   -0.5560   -0.4980 H   0  0  0  0  0  0  0  0  0  0  0  0
   -3.5490   -2.6240    0.1630 H   0  0  0  0  0  0  0  0  0  0  0  0
   -3.0750   -1.5390   -1.1670 H   0  0  0  0  0  0  0  0  0  0  0  0
   -5.8370   -2.5460   -0.3950 H   0  0  0  0  0  0  0  0  0  0  0  0
   -6.6540   -0.9850   -0.6490 H   0  0  0  0  0  0  0  0  0  0  0  0
   -5.4290   -1.5470   -1.8110 H   0  0  0  0  0  0  0  0  0  0  0  0
    6.6210   -1.7270   -1.0810 H   0  0  0  0  0  0  0  0  0  0  0  0
    7.1560   -0.6190    0.2050 H   0  0  0  0  0  0  0  0  0  0  0  0
    6.4090   -2.1790    0.6270 H   0  0  0  0  0  0  0  0  0  0  0  0
   -4.1470    0.5040   -1.4990 H   0  0  0  0  0  0  0  0  0  0  0  0
   -5.4680    1.0370   -0.4330 H   0  0  0  0  0  0  0  0  0  0  0  0
   -3.8960    1.3660    1.4200 H   0  0  0  0  0  0  0  0  0  0  0  0
   -3.3000    2.2520   -0.0080 H   0  0  0  0  0  0  0  0  0  0  0  0
    4.0130   -2.5040    0.4270 H   0  0  0  0  0  0  0  0  0  0  0  0
    1.7920   -1.4450    0.4300 H   0  0  0  0  0  0  0  0  0  0  0  0
   -2.6190   -1.0700    1.8160 H   0  0  0  0  0  0  0  0  0  0  0  0
   -1.3730   -1.4220    0.5900 H   0  0  0  0  0  0  0  0  0  0  0  0
 10 12  1  0  0  0  0
 12 15  2  0  0  0  0
  4 12  1  0  0  0  0
 15 16  1  0  0  0  0
  3  4  2  0  0  0  0
  2 16  2  0  0  0  0
  2  3  1  0  0  0  0
  2 11  1  0  0  0  0
  5 11  1  0  0  0  0
  6 18  2  0  0  0  0
  5  6  1  0  0  0  0
  6  9  1  0  0  0  0
  9 14  1  0  0  0  0
  9 17  1  0  0  0  0
 13 14  1  0  0  0  0
  1 13  1  0  0  0  0
  7 17  1  0  0  0  0
  1  7  1  0  0  0  0
  1  8  1  0  0  0  0
  1 19  1  0  0  0  0
  3 20  1  0  0  0  0
  4 21  1  0  0  0  0
  5 22  1  0  0  0  0
  5 23  1  0  0  0  0
  7 24  1  0  0  0  0
  7 25  1  0  0  0  0
  8 26  1  0  0  0  0
  8 27  1  0  0  0  0
  8 28  1  0  0  0  0
 10 29  1  0  0  0  0
 10 30  1  0  0  0  0
 10 31  1  0  0  0  0
 13 32  1  0  0  0  0
 13 33  1  0  0  0  0
 14 34  1  0  0  0  0
 14 35  1  0  0  0  0
 15 36  1  0  0  0  0
 16 37  1  0  0  0  0
 17 38  1  0  0  0  0
 17 39  1  0  0  0  0
M  CHG  1   1   1
M  END
> <OPENEYE_ISO_SMILES>
Cc1ccc(cc1)OCC(=O)N2CC[NH+](CC2)C

> <OPENEYE_INCHI>
InChI=1S/C14H20N2O2/c1-12-3-5-13(6-4-12)18-11-14(17)16-9-7-15(2)8-10-16/h3-6H,7-11H2,1-2H3/p+1

> <OPENEYE_INCHIKEY>
GIIIJZOPGUFGBF-UHFFFAOYSA-O

> <FORMULA>
C14H21N2O2+

$$$$
