WWC
  -OEChem-02242320043D

 29 31  0     0  0  0  0  0  0999 V2000
   -2.3190   -0.4150    0.0120 C   0  0  0  0  0  0  0  0  0  0  0  0
   -4.0870   -1.7210    0.0520 C   0  0  0  0  0  0  0  0  0  0  0  0
   -3.4890    0.3610   -0.0490 C   0  0  0  0  0  0  0  0  0  0  0  0
   -2.1870    2.2590   -0.1300 C   0  0  0  0  0  0  0  0  0  0  0  0
    3.8260    1.5510    0.7860 C   0  0  0  0  0  0  0  0  0  0  0  0
    3.8020    0.1950    0.0770 C   0  0  0  0  0  0  0  0  0  0  0  0
    5.0690   -0.6590    0.1410 C   0  0  0  0  0  0  0  0  0  0  0  0
    4.6780    0.0330   -1.1660 C   0  0  0  0  0  0  0  0  0  0  0  0
    2.4770   -0.5230    0.0940 C   0  0  0  0  0  0  0  0  0  0  0  0
   -1.0840    0.2340   -0.0030 C   0  0  0  0  0  0  0  0  0  0  0  0
    1.3280    0.1800    0.0380 N   0  0  0  0  0  0  0  0  0  0  0  0
    0.0970   -0.4880    0.0540 N   0  0  0  0  0  0  0  0  0  0  0  0
   -1.0660    1.5630   -0.0750 N   0  0  0  0  0  0  0  0  0  0  0  0
   -3.3720    1.6910   -0.1190 N   0  0  0  0  0  0  0  0  0  0  0  0
   -4.5270   -0.4950   -0.0200 N   0  0  0  0  0  0  0  0  0  0  0  0
   -2.7350   -1.7290    0.0700 N   0  0  0  0  0  0  0  0  0  0  0  0
    2.4440   -1.7340    0.1590 O   0  0  0  0  0  0  0  0  0  0  0  0
   -4.7120   -2.6010    0.0900 H   0  0  0  0  0  0  0  0  0  0  0  0
   -2.1270    3.3350   -0.1870 H   0  0  0  0  0  0  0  0  0  0  0  0
    4.6130    2.1710    0.3570 H   0  0  0  0  0  0  0  0  0  0  0  0
    2.8640    2.0460    0.6580 H   0  0  0  0  0  0  0  0  0  0  0  0
    4.0200    1.4010    1.8490 H   0  0  0  0  0  0  0  0  0  0  0  0
    5.9210   -0.2550    0.6890 H   0  0  0  0  0  0  0  0  0  0  0  0
    4.9450   -1.7400    0.1950 H   0  0  0  0  0  0  0  0  0  0  0  0
    4.2960   -0.5940   -1.9720 H   0  0  0  0  0  0  0  0  0  0  0  0
    5.2720    0.8910   -1.4790 H   0  0  0  0  0  0  0  0  0  0  0  0
    1.3540    1.1480   -0.0130 H   0  0  0  0  0  0  0  0  0  0  0  0
    0.0710   -1.4570    0.1060 H   0  0  0  0  0  0  0  0  0  0  0  0
   -2.1650   -2.5120    0.1200 H   0  0  0  0  0  0  0  0  0  0  0  0
  7  8  1  0  0  0  0
  6  7  1  0  0  0  0
  9 17  2  0  0  0  0
  6  8  1  0  0  0  0
  6  9  1  0  0  0  0
  9 11  1  0  0  0  0
  5  6  1  0  0  0  0
 11 12  1  0  0  0  0
 10 12  1  0  0  0  0
  2 16  1  0  0  0  0
  1 16  1  0  0  0  0
  1 10  2  0  0  0  0
 10 13  1  0  0  0  0
  2 15  2  0  0  0  0
  1  3  1  0  0  0  0
  4 13  2  0  0  0  0
  3 15  1  0  0  0  0
  3 14  2  0  0  0  0
  4 14  1  0  0  0  0
  2 18  1  0  0  0  0
  4 19  1  0  0  0  0
  5 20  1  0  0  0  0
  5 21  1  0  0  0  0
  5 22  1  0  0  0  0
  7 23  1  0  0  0  0
  7 24  1  0  0  0  0
  8 25  1  0  0  0  0
  8 26  1  0  0  0  0
 11 27  1  0  0  0  0
 12 28  1  0  0  0  0
 16 29  1  0  0  0  0
M  END
> <OPENEYE_ISO_SMILES>
CC1(CC1)C(=O)NNc2c3c(nc[nH]3)ncn2

> <OPENEYE_INCHI>
InChI=1S/C10H12N6O/c1-10(2-3-10)9(17)16-15-8-6-7(12-4-11-6)13-5-14-8/h4-5H,2-3H2,1H3,(H,16,17)(H2,11,12,13,14,15)

> <OPENEYE_INCHIKEY>
NBIADPZZLKISOX-UHFFFAOYSA-N

> <FORMULA>
C10H12N6O

$$$$
