@<TRIPOS>MOLECULE
/home/pku/3cl/gett_pdb/7LYH/7LYH_mol2/ligand/7LYH_YHJ.pdb
 31 34 0 0 0
SMALL
GASTEIGER

@<TRIPOS>ATOM
      1  C10      -21.1930    5.4150   16.2270 C.ar  401  YHJ401     -0.0007
      2  C13      -21.0090   -0.9360   16.5790 C.3   401  YHJ401      0.0221
      3  C15      -19.2520   -1.8150   18.1740 C.3   401  YHJ401      0.0001
      4  C17      -20.2190   -1.6050   15.9460 C.3   401  YHJ401      0.0289
      5  C21      -17.7320   -2.0280   11.9560 C.3   401  YHJ401      0.1287
      6  C22      -16.6410   -1.1180   11.2620 C.3   401  YHJ401      0.0335
      7  C24      -18.4100    0.2990    9.9170 C.3   401  YHJ401      0.0326
      8  O01      -18.2180    1.8370   14.2350 O.2   401  YHJ401     -0.2262
      9  C02      -19.1400    1.9200   14.9770 C.2   401  YHJ401      0.4055
     10  O03      -19.6350    3.1380   15.5410 O.3   401  YHJ401     -0.4295
     11  C04      -19.6150    4.1880   14.6140 C.3   401  YHJ401      0.2367
     12  C05      -20.1820    5.4660   15.2440 C.ar  401  YHJ401      0.0213
     13  C06      -19.7160    6.6810   14.7890 C.ar  401  YHJ401     -0.0007
     14  C07      -20.2080    7.8580   15.3200 C.ar  401  YHJ401     -0.0002
     15  C08      -21.1940    7.8110   16.2820 C.ar  401  YHJ401     -0.0000
     16  C09      -21.6760    6.5980   16.7420 C.ar  401  YHJ401     -0.0002
     17  N11      -19.8060    0.6940   15.3460 N.am  401  YHJ401     -0.2392
     18  C12      -21.0210    0.5490   15.8750 C.3   401  YHJ401      0.0972
     19  C14      -20.3940   -0.8840   18.1430 C.3   401  YHJ401      0.0018
     20  C16      -19.2630   -2.4860   17.0370 C.3   401  YHJ401      0.0022
     21  C18      -19.2020   -0.6010   15.2410 C.3   401  YHJ401      0.1564
     22  C19      -19.1180   -0.9740   13.8270 C.2   401  YHJ401      0.2596
     23  N20      -17.8880   -1.5670   13.3770 N.am  401  YHJ401     -0.2031
     24  C23      -17.0980    0.3060   10.9270 C.3   401  YHJ401      0.0818
     25  C25      -18.3400    1.4360    9.2330 C.3   401  YHJ401      0.1156
     26  N26      -16.8190    1.7850    9.1820 N.am  401  YHJ401     -0.2054
     27  C27      -16.1250    0.9660   10.2880 C.2   401  YHJ401      0.2410
     28  O28      -14.9670    0.9960   10.5510 O.2   401  YHJ401     -0.2734
     29  C29      -17.3100   -3.5160   12.0540 C.3   401  YHJ401      0.2036
     30  O30      -17.4520   -4.0780   10.8100 O.3   401  YHJ401     -0.2185
     31  O31      -20.0340   -0.7980   13.0830 O.2   401  YHJ401     -0.2716
@<TRIPOS>BOND
     1    26    25    1
     2    26    27   am
     3    25     7    1
     4     7    24    1
     5    27    28    2
     6    27    24    1
     7    30    29    1
     8    24     6    1
     9     6     5    1
    10     5    29    1
    11     5    23    1
    12    31    22    2
    13    23    22   am
    14    22    21    1
    15     8     9    2
    16    11    12    1
    17    11    10    1
    18    13    12   ar
    19    13    14   ar
    20     9    17   am
    21     9    10    1
    22    21    17    1
    23    21     4    1
    24    12     1   ar
    25    14    15   ar
    26    17    18    1
    27    18     2    1
    28     4     2    1
    29     4    20    1
    30     1    16   ar
    31    15    16   ar
    32     2    19    1
    33    20     3    1
    34    19     3    1
