@<TRIPOS>MOLECULE
/home/pku/3cl/gett_pdb/7DDC/7DDC_mol2/ligand/7DDC_H3F.pdb
 33 35 0 0 0
SMALL
GASTEIGER

@<TRIPOS>ATOM
      1  C01        4.5130   -0.9240   20.4380 C.3   401  H3F401      0.0313
      2  C02        5.7140   -1.0380   21.3180 C.ar  401  H3F401     -0.0127
      3  C03        6.6840   -2.0300   20.9270 C.ar  401  H3F401      0.0536
      4  C04        7.8940   -2.2650   21.6900 C.ar  401  H3F401      0.2247
      5  N05        8.1270   -1.5150   22.8210 N.ar  401  H3F401     -0.2103
      6  C06        7.1400   -0.4870   23.2660 C.ar  401  H3F401      0.1020
      7  C07        5.8820   -0.1790   22.5460 C.ar  401  H3F401      0.0528
      8  C08        4.9040    0.9190   23.1490 C.ar  401  H3F401      0.1801
      9  C09        5.3140    1.5900   24.3210 C.ar  401  H3F401      0.1743
     10  C10        6.5830    1.2350   24.9700 C.ar  401  H3F401      0.0577
     11  C11        7.4900    0.2560   24.5110 C.ar  401  H3F401      0.0861
     12  N12        8.6800   -0.0450   25.2120 N.pl3 401  H3F401     -0.2377
     13  C13        8.9850   -1.2750   26.0200 C.3   401  H3F401      0.0926
     14  C14        9.2990   -0.8690   27.4410 C.3   401  H3F401      0.0233
     15  C15        7.7710   -2.4330   26.0320 C.3   401  H3F401      0.0231
     16  C16        7.9530   -3.8330   26.7920 C.3   401  H3F401      0.0223
     17  C17        9.3890   -4.4620   26.7870 C.3   401  H3F401      0.1094
     18  N18        9.6000   -5.4010   25.6540 N.3   401  H3F401     -0.1314
     19  O19        4.4560    2.6490   24.8820 O.3   401  H3F401     -0.4683
     20  C20        3.1030    2.3820   25.3720 C.3   401  H3F401      0.2526
     21  O21        3.6550    1.4770   22.5920 O.3   401  H3F401     -0.4504
     22  C22        2.4010    0.9990   22.2530 C.ar  401  H3F401      0.1454
     23  C23        1.3460    1.9180   22.0260 C.ar  401  H3F401      0.0375
     24  C24        0.0560    1.4980   21.6660 C.ar  401  H3F401      0.0031
     25  C25       -0.1960    0.1550   21.5050 C.ar  401  H3F401      0.0041
     26  C26        0.8730   -0.7310   21.7290 C.ar  401  H3F401      0.0744
     27  C27        2.1530   -0.3390   22.0920 C.ar  401  H3F401      0.0413
     28  C28        0.6250   -2.2360   21.5550 C.3   401  H3F401      0.4187
     29  F29        0.2680   -2.8290   22.7220 F     401  H3F401     -0.1659
     30  F30        1.6730   -2.8430   21.0630 F     401  H3F401     -0.1659
     31  F31       -0.3950   -2.4880   20.7220 F     401  H3F401     -0.1659
     32  O32        8.9200   -3.3220   21.2250 O.3   401  H3F401     -0.4561
     33  C33        8.6870   -4.7140   21.3370 C.3   401  H3F401      0.2542
@<TRIPOS>BOND
     1     1     2    1
     2    31    28    1
     3     3     2   ar
     4     3     4   ar
     5    30    28    1
     6    32    33    1
     7    32     4    1
     8     2     7   ar
     9    25    24   ar
    10    25    26   ar
    11    28    26    1
    12    28    29    1
    13    24    23   ar
    14     4     5   ar
    15    26    27   ar
    16    23    22   ar
    17    27    22   ar
    18    22    21    1
    19     7     8   ar
    20     7     6   ar
    21    21     8    1
    22     5     6   ar
    23     8     9   ar
    24     6    11   ar
    25     9    19    1
    26     9    10   ar
    27    11    10   ar
    28    11    12    1
    29    19    20    1
    30    12    13    1
    31    18    17    1
    32    13    15    1
    33    13    14    1
    34    15    16    1
    35    17    16    1
