@<TRIPOS>MOLECULE
/home/pku/3cl/gett_pdb/7L6R/7L6R_mol2/ligand/7L6R_M7G.pdb
 29 31 0 0 0
SMALL
GASTEIGER

@<TRIPOS>ATOM
      1  PA        86.6990   24.2070   38.6220 P.3     0  M7G0        0.2231
      2  O1A       88.1510   23.9750   38.3950 O.3     0  M7G0       -0.4370
      3  O2A       85.7160   23.1520   38.2480 O.2     0  M7G0       -0.5169
      4  O3A       86.3130   25.5770   37.8840 O.3     0  M7G0       -0.2261
      5  O5'       86.4560   24.6270   40.1570 O.3     0  M7G0       -0.3111
      6  PB        84.8920   26.2320   37.5240 P.3     0  M7G0        0.5373
      7  O1B       84.0460   26.1410   38.7450 O.3     0  M7G0       -0.1143
      8  O2B       85.1830   27.6480   37.1210 O.3     0  M7G0       -0.1143
      9  O3B       84.3330   25.3360   36.3060 O.2     0  M7G0       -0.2221
     10  C5'       86.2580   23.5870   41.1570 C.3     0  M7G0        0.1813
     11  C4'       85.4240   24.1330   42.2920 C.3     0  M7G0        0.1799
     12  O4'       86.1020   25.2670   42.8980 O.3     0  M7G0       -0.3326
     13  C3'       84.0530   24.6930   41.8970 C.3     0  M7G0        0.2158
     14  O3'       83.1030   23.6560   41.6980 O.3     0  M7G0       -0.2175
     15  C2'       83.7660   25.6100   43.0700 C.3     0  M7G0        0.2310
     16  O2'       83.4250   24.9130   44.2480 O.3     0  M7G0       -0.2158
     17  C1'       85.1400   26.2320   43.3030 C.3     0  M7G0        0.2283
     18  N9        85.3220   27.4800   42.5460 N.pl3   0  M7G0       -0.2503
     19  C8        86.0870   27.5690   41.3010 C.3     0  M7G0        0.1917
     20  N7        85.9950   28.9860   40.9780 N.pl3   0  M7G0       -0.2828
     21  CM7       86.5950   29.5680   39.7890 C.3     0  M7G0        0.1140
     22  C5        85.2440   29.6540   41.9380 C.ar    0  M7G0        0.1399
     23  C6        84.9030   31.0110   42.0460 C.ar    0  M7G0        0.2978
     24  O6        85.2010   31.9380   41.2960 O.2     0  M7G0       -0.2636
     25  N1        84.1260   31.2290   43.1830 N.ar    0  M7G0       -0.1712
     26  C2        83.7440   30.2780   44.0930 C.ar    0  M7G0        0.2604
     27  N2        83.0010   30.6970   45.1230 N.pl3   0  M7G0       -0.0859
     28  N3        84.0700   29.0020   43.9850 N.ar    0  M7G0       -0.1946
     29  C4        84.8290   28.7240   42.9000 C.ar    0  M7G0        0.1558
@<TRIPOS>BOND
     1     9     6    2
     2     8     6    1
     3     6     4    1
     4     6     7    1
     5     4     1    1
     6     3     1    2
     7     2     1    1
     8     1     5    1
     9    21    20    1
    10     5    10    1
    11    20    19    1
    12    20    22    1
    13    10    11    1
    14    24    23    2
    15    19    18    1
    16    14    13    1
    17    13    11    1
    18    13    15    1
    19    22    23   ar
    20    22    29   ar
    21    23    25   ar
    22    11    12    1
    23    18    29    1
    24    18    17    1
    25    12    17    1
    26    29    28   ar
    27    15    17    1
    28    15    16    1
    29    25    26   ar
    30    28    26   ar
    31    26    27    1
