@<TRIPOS>MOLECULE
/home/pku/3cl/gett_pdb/5SSP/5SSP_mol2/ligand/5SSP_RTI.pdb
 40 43 0 0 0
SMALL
GASTEIGER

@<TRIPOS>ATOM
      1  C18      -49.4420  -29.2050    6.6360 C.ar  201  RTI201      0.0465
      2  C16      -49.6360  -29.4410    4.2390 C.ar  201  RTI201     -0.0405
      3  C17      -50.2190  -29.4120    5.5100 C.ar  201  RTI201      0.0004
      4  C15      -48.2700  -29.2450    4.1280 C.ar  201  RTI201      0.0374
      5  C14      -47.6590  -29.3310    2.7480 C.2   201  RTI201      0.2446
      6  C12      -45.7270  -30.1100    1.4240 C.3   201  RTI201      0.0580
      7  C11      -46.1120  -31.5180    0.8880 C.ar  201  RTI201     -0.0199
      8  C10      -47.3260  -32.1950    0.9050 C.ar  201  RTI201     -0.0563
      9  C20      -51.4990  -29.4430    7.3420 C.ar  201  RTI201      0.0027
     10  C02      -43.6120  -30.1230    2.7760 C.2   201  RTI201      0.0926
     11  C03      -44.2230  -30.0340    1.3630 C.3   201  RTI201      0.0343
     12  C04      -43.8150  -31.1260    0.4370 C.3   201  RTI201     -0.0132
     13  C05      -44.9970  -32.0910    0.2800 C.ar  201  RTI201     -0.0003
     14  C06      -45.1050  -33.3550   -0.3000 C.ar  201  RTI201      0.1204
     15  C08      -46.3190  -34.0270   -0.2760 C.ar  201  RTI201     -0.0199
     16  C09      -47.4320  -33.4490    0.3270 C.ar  201  RTI201     -0.0580
     17  C21      -51.5410  -29.5640    5.9600 C.ar  201  RTI201     -0.0366
     18  C22      -48.0550  -29.0300    6.5120 C.ar  201  RTI201     -0.0371
     19  C23      -47.4720  -29.0620    5.2550 C.ar  201  RTI201     -0.0477
     20  N13      -46.3430  -29.9260    2.6880 N.am  201  RTI201     -0.3039
     21  N19      -50.2440  -29.2310    7.7110 N.ar  201  RTI201     -0.3606
     22  O01      -43.1400  -29.0680    3.2940 O.co2 201  RTI201     -0.8473
     23  O07      -44.0210  -33.9690   -0.9300 O.3   201  RTI201     -0.5065
     24  O24      -48.2370  -29.0120    1.7690 O.2   201  RTI201     -0.2702
     25  O25      -43.6090  -31.2260    3.3920 O.co2 201  RTI201     -0.3086
     26 H161      -50.2510  -29.6060    3.3470 H     201  RTI201      0.0632
     27 H121      -46.1120  -29.3710    0.7430 H     201  RTI201      0.0555
     28 H101      -48.1810  -31.7430    1.3830 H     201  RTI201      0.0621
     29 H201      -52.3560  -29.4990    8.0050 H     201  RTI201      0.0807
     30 H031      -43.9470  -29.0950    0.9170 H     201  RTI201      0.0393
     31 H041      -43.5560  -30.6830   -0.5030 H     201  RTI201      0.0322
     32 H042      -42.9840  -31.6710    0.8650 H     201  RTI201      0.0322
     33 H081      -46.4060  -35.0000   -0.7310 H     201  RTI201      0.0654
     34 H091      -48.3750  -33.9700    0.3480 H     201  RTI201      0.0619
     35 H211      -52.4220  -29.7330    5.3460 H     201  RTI201      0.0638
     36 H221      -47.4590  -28.8840    7.3960 H     201  RTI201      0.0638
     37 H231      -46.4050  -28.9310    5.1450 H     201  RTI201      0.0626
     38 H131      -45.9030  -30.2050    3.5340 H     201  RTI201      0.1496
     39 H191      -49.9540  -29.1170    8.6600 H     201  RTI201      0.1653
     40 H071      -44.2100  -33.9910   -1.8620 H     201  RTI201      0.2921
@<TRIPOS>UNITY_ATOM_ATTR
22 1
charge -1
@<TRIPOS>BOND
     1    40    23    1
     2    23    14    1
     3    33    15    1
     4    31    12    1
     5    14    15   ar
     6    14    13   ar
     7    15    16   ar
     8    13    12    1
     9    13     7   ar
    10    16    34    1
    11    16     8   ar
    12    12    32    1
    13    12    11    1
    14    27     6    1
    15     7     8   ar
    16     7     6    1
    17     8    28    1
    18    30    11    1
    19    11     6    1
    20    11    10    1
    21     6    20    1
    22    24     5    2
    23    20     5   am
    24    20    38    1
    25     5     4    1
    26    10    22   ar
    27    10    25   ar
    28    26     2    1
    29     4     2   ar
    30     4    19   ar
    31     2     3   ar
    32    37    19    1
    33    19    18   ar
    34    35    17    1
    35     3    17   ar
    36     3     1   ar
    37    17     9   ar
    38    18     1   ar
    39    18    36    1
    40     1    21   ar
    41     9    21   ar
    42     9    29    1
    43    21    39    1
