H6L
  -OEChem-02242320023D

 75 76  0     1  0  0  0  0  0999 V2000
    4.2470   -0.6580    1.1530 C   0  0  0  0  0  0  0  0  0  0  0  0
    4.3600   -1.3330    2.1580 O   0  0  0  0  0  0  0  0  0  0  0  0
    5.4530   -0.1400    0.4720 C   0  0  0  0  0  0  0  0  0  0  0  0
    6.7210   -0.4260    0.9790 C   0  0  0  0  0  0  0  0  0  0  0  0
    7.8420    0.0600    0.3370 C   0  0  0  0  0  0  0  0  0  0  0  0
    7.7110    0.8280   -0.8060 C   0  0  0  0  0  0  0  0  0  0  0  0
    6.4560    1.1150   -1.3130 C   0  0  0  0  0  0  0  0  0  0  0  0
    5.3270    0.6310   -0.6850 C   0  0  0  0  0  0  0  0  0  0  0  0
    8.9170    1.3460   -1.4890 N   0  3  0  0  0  0  0  0  0  0  0  0
    8.8050    2.0230   -2.4950 O   0  5  0  0  0  0  0  0  0  0  0  0
   10.0230    1.0960   -1.0440 O   0  0  0  0  0  0  0  0  0  0  0  0
    3.0240   -0.3860    0.6580 N   0  0  0  0  0  0  0  0  0  0  0  0
    1.8290   -0.9040    1.3310 C   0  0  2  0  0  0  0  0  0  0  0  0
    0.7020   -1.0140    0.3370 C   0  0  0  0  0  0  0  0  0  0  0  0
    0.8780   -0.6920   -0.8190 O   0  0  0  0  0  0  0  0  0  0  0  0
    1.4250    0.0490    2.4570 C   0  0  0  0  0  0  0  0  0  0  0  0
    2.5690    0.1620    3.4660 C   0  0  0  0  0  0  0  0  0  0  0  0
    1.1220    1.4310    1.8730 C   0  0  0  0  0  0  0  0  0  0  0  0
   -0.5030   -1.4710    0.7330 N   0  0  0  0  0  0  0  0  0  0  0  0
   -1.6290   -1.4750   -0.2050 C   0  0  2  0  0  0  0  0  0  0  0  0
   -2.9200   -1.3360    0.5600 C   0  0  0  0  0  0  0  0  0  0  0  0
   -2.9540   -1.5950    1.7450 O   0  0  0  0  0  0  0  0  0  0  0  0
   -1.6380   -2.7910   -0.9850 C   0  0  0  0  0  0  0  0  0  0  0  0
   -2.7270   -2.7400   -2.0590 C   0  0  0  0  0  0  0  0  0  0  0  0
   -2.3540   -1.6960   -3.1130 C   0  0  0  0  0  0  0  0  0  0  0  0
   -2.8530   -4.1120   -2.7230 C   0  0  0  0  0  0  0  0  0  0  0  0
   -4.9000    3.7240    0.9430 C   0  0  0  0  0  0  0  0  0  0  0  0
   -5.2640   -0.6870    0.6910 C   0  0  1  0  0  0  0  0  0  0  0  0
   -5.3300    2.2640    1.1370 C   0  0  0  0  0  0  0  0  0  0  0  0
   -6.3230    2.5040   -1.1260 C   0  0  0  0  0  0  0  0  0  0  0  0
   -6.1760    0.2610   -0.0920 C   0  0  0  0  0  0  0  0  0  0  0  0
   -5.9760   -1.9960    0.9170 C   0  0  0  0  0  0  0  0  0  0  0  0
   -5.4900    1.6200   -0.2430 C   0  0  2  0  0  0  0  0  0  0  0  0
   -6.0560    4.4950    0.3060 C   0  0  0  0  0  0  0  0  0  0  0  0
   -4.0360   -0.9230   -0.0720 N   0  0  0  0  0  0  0  0  0  0  0  0
   -6.5480    3.7940   -0.8740 N   0  0  0  0  0  0  0  0  0  0  0  0
   -5.5050   -3.0210    0.4850 O   0  0  0  0  0  0  0  0  0  0  0  0
   -6.8170    2.0190   -2.1210 O   0  0  0  0  0  0  0  0  0  0  0  0
    6.8260   -1.0250    1.8710 H   0  0  0  0  0  0  0  0  0  0  0  0
    8.8250   -0.1590    0.7290 H   0  0  0  0  0  0  0  0  0  0  0  0
    6.3600    1.7160   -2.2060 H   0  0  0  0  0  0  0  0  0  0  0  0
    4.3480    0.8550   -1.0820 H   0  0  0  0  0  0  0  0  0  0  0  0
    2.9340    0.1530   -0.1430 H   0  0  0  0  0  0  0  0  0  0  0  0
    2.0450   -1.8880    1.7470 H   0  0  0  0  0  0  0  0  0  0  0  0
    0.5360   -0.3360    2.9570 H   0  0  0  0  0  0  0  0  0  0  0  0
    2.2810    0.8400    4.2690 H   0  0  0  0  0  0  0  0  0  0  0  0
    2.7850   -0.8220    3.8820 H   0  0  0  0  0  0  0  0  0  0  0  0
    3.4580    0.5470    2.9660 H   0  0  0  0  0  0  0  0  0  0  0  0
    0.3070    1.3510    1.1540 H   0  0  0  0  0  0  0  0  0  0  0  0
    0.8340    2.1090    2.6750 H   0  0  0  0  0  0  0  0  0  0  0  0
    2.0110    1.8160    1.3730 H   0  0  0  0  0  0  0  0  0  0  0  0
   -0.6240   -1.7970    1.6380 H   0  0  0  0  0  0  0  0  0  0  0  0
   -1.5260   -0.6410   -0.8990 H   0  0  0  0  0  0  0  0  0  0  0  0
   -0.6670   -2.9400   -1.4590 H   0  0  0  0  0  0  0  0  0  0  0  0
   -1.8390   -3.6170   -0.3030 H   0  0  0  0  0  0  0  0  0  0  0  0
   -3.6770   -2.4690   -1.5990 H   0  0  0  0  0  0  0  0  0  0  0  0
   -1.4410   -2.0030   -3.6230 H   0  0  0  0  0  0  0  0  0  0  0  0
   -3.1630   -1.6070   -3.8390 H   0  0  0  0  0  0  0  0  0  0  0  0
   -2.1930   -0.7320   -2.6290 H   0  0  0  0  0  0  0  0  0  0  0  0
   -3.1180   -4.8560   -1.9720 H   0  0  0  0  0  0  0  0  0  0  0  0
   -3.6290   -4.0760   -3.4880 H   0  0  0  0  0  0  0  0  0  0  0  0
   -1.9020   -4.3830   -3.1820 H   0  0  0  0  0  0  0  0  0  0  0  0
   -4.6550    4.1640    1.9090 H   0  0  0  0  0  0  0  0  0  0  0  0
   -4.0270    3.7640    0.2910 H   0  0  0  0  0  0  0  0  0  0  0  0
   -5.0140   -0.2380    1.6530 H   0  0  0  0  0  0  0  0  0  0  0  0
   -4.5680    1.7300    1.7050 H   0  0  0  0  0  0  0  0  0  0  0  0
   -6.2790    2.2290    1.6710 H   0  0  0  0  0  0  0  0  0  0  0  0
   -6.3740   -0.1580   -1.0790 H   0  0  0  0  0  0  0  0  0  0  0  0
   -7.1160    0.3860    0.4450 H   0  0  0  0  0  0  0  0  0  0  0  0
   -6.9060   -2.0170    1.4640 H   0  0  0  0  0  0  0  0  0  0  0  0
   -4.5080    1.4800   -0.6930 H   0  0  0  0  0  0  0  0  0  0  0  0
   -6.8660    4.5930    1.0300 H   0  0  0  0  0  0  0  0  0  0  0  0
   -5.7110    5.4860    0.0150 H   0  0  0  0  0  0  0  0  0  0  0  0
   -4.0270   -0.7830   -1.0310 H   0  0  0  0  0  0  0  0  0  0  0  0
   -7.0720    4.2980   -1.5160 H   0  0  0  0  0  0  0  0  0  0  0  0
  9 10  1  0  0  0  0
  9 11  2  0  0  0  0
  6  9  1  0  0  0  0
 34 36  1  0  0  0  0
 30 36  1  0  0  0  0
 27 34  1  0  0  0  0
  5  6  2  0  0  0  0
  6  7  1  0  0  0  0
  4  5  1  0  0  0  0
 30 38  2  0  0  0  0
  7  8  2  0  0  0  0
 30 33  1  0  0  0  0
  3  4  2  0  0  0  0
 27 29  1  0  0  0  0
 16 17  1  0  0  0  0
  3  8  1  0  0  0  0
  1  3  1  0  0  0  0
  1 12  1  0  0  0  0
 12 13  1  0  0  0  0
 29 33  1  0  0  0  0
 31 33  1  0  0  0  0
 13 16  1  0  0  0  0
 16 18  1  0  0  0  0
  1  2  2  0  0  0  0
 14 15  2  0  0  0  0
 13 14  1  0  0  0  0
 28 31  1  0  0  0  0
 14 19  1  0  0  0  0
 28 35  1  0  0  0  0
 28 32  1  0  0  0  0
 21 35  1  0  0  0  0
 19 20  1  0  0  0  0
 21 22  2  0  0  0  0
 20 21  1  0  0  0  0
 32 37  2  0  0  0  0
 20 23  1  0  0  0  0
 24 25  1  0  0  0  0
 23 24  1  0  0  0  0
 24 26  1  0  0  0  0
 35 74  1  0  0  0  0
 23 54  1  0  0  0  0
 23 55  1  0  0  0  0
 25 57  1  0  0  0  0
 25 58  1  0  0  0  0
 25 59  1  0  0  0  0
 13 44  1  0  0  0  0
 16 45  1  0  0  0  0
 17 46  1  0  0  0  0
 17 47  1  0  0  0  0
 17 48  1  0  0  0  0
  4 39  1  0  0  0  0
 32 70  1  0  0  0  0
 28 65  1  0  0  0  0
 31 68  1  0  0  0  0
 31 69  1  0  0  0  0
 33 71  1  0  0  0  0
 29 66  1  0  0  0  0
 29 67  1  0  0  0  0
 27 63  1  0  0  0  0
 27 64  1  0  0  0  0
 34 72  1  0  0  0  0
 34 73  1  0  0  0  0
 20 53  1  0  0  0  0
 24 56  1  0  0  0  0
 26 60  1  0  0  0  0
 26 61  1  0  0  0  0
 26 62  1  0  0  0  0
 18 49  1  0  0  0  0
 18 50  1  0  0  0  0
 18 51  1  0  0  0  0
  5 40  1  0  0  0  0
  7 41  1  0  0  0  0
  8 42  1  0  0  0  0
 36 75  1  0  0  0  0
 19 52  1  0  0  0  0
 12 43  1  0  0  0  0
M  CHG  2   9   1  10  -1
M  END
> <OPENEYE_ISO_SMILES>
CC(C)C[C@@H](C(=O)N[C@@H](C[C@@H]1CCCNC1=O)C=O)NC(=O)[C@H](C(C)C)NC(=O)c2ccc(cc2)[N+](=O)[O-]

> <OPENEYE_INCHI>
InChI=1S/C26H37N5O7/c1-15(2)12-21(25(35)28-19(14-32)13-18-6-5-11-27-23(18)33)29-26(36)22(16(3)4)30-24(34)17-7-9-20(10-8-17)31(37)38/h7-10,14-16,18-19,21-22H,5-6,11-13H2,1-4H3,(H,27,33)(H,28,35)(H,29,36)(H,30,34)/t18-,19-,21-,22-/m0/s1

> <OPENEYE_INCHIKEY>
UUOJCIYWLMPKQE-LGGPRVQUSA-N

> <FORMULA>
C26H37N5O7

$$$$
