@<TRIPOS>MOLECULE
/home/pku/3cl/gett_pdb/7RFW/7RFW_mol2/ligand/7RFW_4WI.pdb
 68 70 0 0 0
SMALL
GASTEIGER

@<TRIPOS>ATOM
      1  C8         6.5780    1.4300   18.1500 C.2   401  4WI401      0.2162
      2  C3         7.8530   -2.9870   19.9280 C.2   401  4WI401      0.0750
      3  C1         9.4180   -0.5490   21.7920 C.2   401  4WI401      0.2344
      4  C13       10.4330    2.2610   22.0540 C.2   401  4WI401      0.2371
      5  C21       12.4400    4.9740   22.6730 C.2   401  4WI401      0.3179
      6  C6         5.8180    0.9830   20.3780 C.3   401  4WI401     -0.0262
      7  C7         5.2460    2.2960   19.8820 C.3   401  4WI401      0.0123
      8  C10       11.5240    1.0050   23.9810 C.3   401  4WI401      0.0192
      9  C5         6.9860    0.7100   19.4210 C.3   401  4WI401      0.0390
     10  C9        10.8570   -0.1550   21.9220 C.3   401  4WI401      0.1058
     11  C11       12.0340   -0.3910   24.0260 C.3   401  4WI401     -0.0142
     12  C12       11.6200   -1.1070   22.7860 C.3   401  4WI401     -0.0037
     13  C18       13.1020   -0.9780   23.1170 C.3   401  4WI401     -0.0250
     14  C19       13.9230   -0.0590   22.2670 C.3   401  4WI401     -0.0592
     15  C20       13.8040   -2.1910   23.6050 C.3   401  4WI401     -0.0592
     16  C16        9.2070    5.2800   23.9920 C.3   401  4WI401     -0.0579
     17  C17        8.2090    3.0400   23.7360 C.3   401  4WI401     -0.0579
     18  C23        8.3820    4.5810   21.8180 C.3   401  4WI401     -0.0579
     19  C4         7.1730   -0.7570   19.0900 C.3   401  4WI401     -0.0177
     20  C2         7.7540   -1.5230   20.2630 C.3   401  4WI401      0.0672
     21  C14       10.4610    3.5250   22.8670 C.3   401  4WI401      0.1047
     22  C22       13.2480    5.7900   21.7080 C.3   401  4WI401      0.4694
     23  C15        9.0680    4.0900   23.0720 C.3   401  4WI401     -0.0108
     24  N5         6.7550   -3.6490   19.7720 N.2   401  4WI401     -0.3003
     25  N2         5.4890    2.2410   18.4590 N.am  401  4WI401     -0.3151
     26  N3        10.8500    1.1070   22.6730 N.am  401  4WI401     -0.2878
     27  N1         9.1130   -1.1080   20.5680 N.am  401  4WI401     -0.3054
     28  N4        11.3220    4.3990   22.1040 N.am  401  4WI401     -0.2962
     29  O1         7.1580    1.3240   17.0780 O.2   401  4WI401     -0.2755
     30  O2         8.6370   -0.3740   22.7200 O.2   401  4WI401     -0.2737
     31  O3        10.0400    2.2690   20.8990 O.2   401  4WI401     -0.2735
     32  O4        12.7570    4.9150   23.8540 O.2   401  4WI401     -0.2660
     33  F1        13.2700    5.3740   20.4210 F     401  4WI401     -0.1620
     34  F2        14.5530    5.7550   22.0670 F     401  4WI401     -0.1620
     35  F3        12.8110    7.0790   21.6730 F     401  4WI401     -0.1620
     36  H5         6.1720    1.0780   21.4080 H     401  4WI401      0.0288
     37  H6         5.0680    0.1890   20.3280 H     401  4WI401      0.0288
     38  H7         4.1700    2.3710   20.0610 H     401  4WI401      0.0462
     39  H8         5.7670    3.1590   20.3040 H     401  4WI401      0.0462
     40  H11       10.8110    1.2180   24.7810 H     401  4WI401      0.0468
     41  H12       12.3730    1.6930   24.0150 H     401  4WI401      0.0468
     42  H4         7.9080    1.1690   19.7880 H     401  4WI401      0.0395
     43  H10       11.3290   -0.0040   20.9480 H     401  4WI401      0.0600
     44  H13       11.6660   -0.8970   24.9180 H     401  4WI401      0.0325
     45  H14       11.1300   -2.0640   22.9010 H     401  4WI401      0.0332
     46  H23       14.2550   -0.5780   21.3640 H     401  4WI401      0.0235
     47  H24       14.8090    0.2640   22.8200 H     401  4WI401      0.0235
     48  H25       13.3710    0.8330   21.9630 H     401  4WI401      0.0235
     49  H26       14.1930   -2.7590   22.7550 H     401  4WI401      0.0235
     50  H27       13.1180   -2.8310   24.1660 H     401  4WI401      0.0235
     51  H28       14.6410   -1.9140   24.2500 H     401  4WI401      0.0235
     52  H17        9.8550    6.0410   23.5490 H     401  4WI401      0.0236
     53  H19        9.6290    4.9790   24.9540 H     401  4WI401      0.0236
     54  H18        8.2290    5.7330   24.1740 H     401  4WI401      0.0236
     55  H20        7.7370    2.3950   22.9900 H     401  4WI401      0.0236
     56  H21        7.4190    3.5180   24.3210 H     401  4WI401      0.0236
     57  H22        8.8040    2.4200   24.4110 H     401  4WI401      0.0236
     58  H29        8.2380    3.7660   21.1040 H     401  4WI401      0.0236
     59  H30        8.9680    5.3670   21.3360 H     401  4WI401      0.0236
     60  H31        7.4000    4.9920   22.0660 H     401  4WI401      0.0236
     61  H2         7.8440   -0.8480   18.2340 H     401  4WI401      0.0294
     62  H3         6.2110   -1.1910   18.8060 H     401  4WI401      0.0294
     63  H32        7.1230   -1.4210   21.1480 H     401  4WI401      0.0564
     64  H15       10.8990    3.3660   23.8470 H     401  4WI401      0.0600
     65  H36        6.9130   -4.6460   19.5960 H     401  4WI401      0.1865
     66  H9         5.2720    3.0450   17.8790 H     401  4WI401      0.1487
     67  H1         9.8450   -1.2880   19.8890 H     401  4WI401      0.1494
     68  H16       11.1530    4.5160   21.1100 H     401  4WI401      0.1497
@<TRIPOS>BOND
     1    29     1    2
     2    66    25    1
     3     1    25   am
     4     1     9    1
     5    61    19    1
     6    25     7    1
     7    62    19    1
     8    19     9    1
     9    19    20    1
    10     9    42    1
    11     9     6    1
    12    65    24    1
    13    24     2    2
    14     7    38    1
    15     7    39    1
    16     7     6    1
    17    67    27    1
    18     2    20    1
    19    20    27    1
    20    20    63    1
    21    37     6    1
    22     6    36    1
    23    33    22    1
    24    27     3   am
    25    31     4    2
    26    43    10    1
    27    58    18    1
    28    68    28    1
    29    59    18    1
    30    46    14    1
    31    35    22    1
    32    22    34    1
    33    22     5    1
    34     3    10    1
    35     3    30    2
    36    18    60    1
    37    18    23    1
    38    10    26    1
    39    10    12    1
    40    48    14    1
    41     4    26   am
    42     4    21    1
    43    28     5   am
    44    28    21    1
    45    14    47    1
    46    14    13    1
    47     5    32    2
    48    26     8    1
    49    49    15    1
    50    12    45    1
    51    12    13    1
    52    12    11    1
    53    21    23    1
    54    21    64    1
    55    55    17    1
    56    23    17    1
    57    23    16    1
    58    13    15    1
    59    13    11    1
    60    52    16    1
    61    15    50    1
    62    15    51    1
    63    17    56    1
    64    17    57    1
    65     8    41    1
    66     8    11    1
    67     8    40    1
    68    16    54    1
    69    16    53    1
    70    11    44    1
