ACT
  -OEChem-02242320013D

  7  6  0     0  0  0  0  0  0999 V2000
   -0.0720    0.0000    0.0000 C   0  0  0  0  0  0  0  0  0  0  0  0
   -0.6820    1.0560    0.0000 O   0  0  0  0  0  0  0  0  0  0  0  0
   -0.6820   -1.0560    0.0000 O   0  5  0  0  0  0  0  0  0  0  0  0
    1.4350    0.0000    0.0000 C   0  0  0  0  0  0  0  0  0  0  0  0
    1.7990    0.0000    1.0280 H   0  0  0  0  0  0  0  0  0  0  0  0
    1.7990   -0.8900   -0.5140 H   0  0  0  0  0  0  0  0  0  0  0  0
    1.7990    0.8900   -0.5140 H   0  0  0  0  0  0  0  0  0  0  0  0
  1  2  2  0  0  0  0
  1  3  1  0  0  0  0
  1  4  1  0  0  0  0
  4  5  1  0  0  0  0
  4  6  1  0  0  0  0
  4  7  1  0  0  0  0
M  CHG  1   3  -1
M  END
> <OPENEYE_ISO_SMILES>
CC(=O)[O-]

> <OPENEYE_INCHI>
InChI=1S/C2H4O2/c1-2(3)4/h1H3,(H,3,4)/p-1

> <OPENEYE_INCHIKEY>
QTBSBXVTEAMEQO-UHFFFAOYSA-M

> <FORMULA>
C2H3O2-

$$$$
