YOO
  -OEChem-02242320043D

 63 66  0     0  0  0  0  0  0999 V2000
   -3.8100    2.3140    0.5050 C   0  0  0  0  0  0  0  0  0  0  0  0
   -4.7530    1.3050    0.3650 C   0  0  0  0  0  0  0  0  0  0  0  0
   -4.3600    0.0290    0.0040 C   0  0  0  0  0  0  0  0  0  0  0  0
    2.5750    1.8080    0.4570 C   0  0  0  0  0  0  0  0  0  0  0  0
    3.9170    1.5110    0.3240 C   0  0  0  0  0  0  0  0  0  0  0  0
   -0.2980   -0.6560   -0.6410 O   0  0  0  0  0  0  0  0  0  0  0  0
   -0.6430    0.4660   -0.3230 C   0  0  0  0  0  0  0  0  0  0  0  0
   -2.0710    0.7600   -0.0830 C   0  0  0  0  0  0  0  0  0  0  0  0
   -3.0270   -0.2490   -0.2210 C   0  0  0  0  0  0  0  0  0  0  0  0
   -5.3900   -1.0610   -0.1450 C   0  0  0  0  0  0  0  0  0  0  0  0
   -6.1200   -1.2590    1.1860 C   0  0  0  0  0  0  0  0  0  0  0  0
   -7.2060   -2.3230    1.0130 C   0  0  0  0  0  0  0  0  0  0  0  0
   -8.1510   -1.8960   -0.0260 N   0  0  0  0  0  0  0  0  0  0  0  0
   -9.2840   -2.8260   -0.1230 C   0  0  0  0  0  0  0  0  0  0  0  0
   -7.4810   -1.7450   -1.3240 C   0  0  0  0  0  0  0  0  0  0  0  0
   -6.4030   -0.6630   -1.2220 C   0  0  0  0  0  0  0  0  0  0  0  0
   -4.2010    3.5640    0.8670 O   0  0  0  0  0  0  0  0  0  0  0  0
   -3.1780    4.5540    0.9920 C   0  0  0  0  0  0  0  0  0  0  0  0
   -2.4700    2.0460    0.2820 C   0  0  0  0  0  0  0  0  0  0  0  0
    0.2780    1.4410   -0.1900 N   0  0  0  0  0  0  0  0  0  0  0  0
    1.6380    1.1420   -0.3220 C   0  0  0  0  0  0  0  0  0  0  0  0
    2.0530    0.1790   -1.2310 C   0  0  0  0  0  0  0  0  0  0  0  0
    3.3970   -0.1140   -1.3590 C   0  0  0  0  0  0  0  0  0  0  0  0
    4.3280    0.5510   -0.5830 C   0  0  0  0  0  0  0  0  0  0  0  0
    6.0410    0.1750   -0.7490 S   0  0  0  0  0  0  0  0  0  0  0  0
    6.2070   -0.3750   -2.0490 O   0  0  0  0  0  0  0  0  0  0  0  0
    6.7490    1.3200   -0.2940 O   0  0  0  0  0  0  0  0  0  0  0  0
    6.3830   -1.0420    0.3200 N   0  0  0  0  0  0  0  0  0  0  0  0
    6.8130   -0.8610    1.7190 C   0  0  0  0  0  0  0  0  0  0  0  0
    6.4040   -2.1730    2.4330 C   0  0  0  0  0  0  0  0  0  0  0  0
    6.6830   -3.2280    1.3300 C   0  0  0  0  0  0  0  0  0  0  0  0
    6.3000   -2.4820    0.0350 C   0  0  0  0  0  0  0  0  0  0  0  0
   -5.7970    1.5170    0.5400 H   0  0  0  0  0  0  0  0  0  0  0  0
    2.2550    2.5550    1.1680 H   0  0  0  0  0  0  0  0  0  0  0  0
    4.6470    2.0290    0.9290 H   0  0  0  0  0  0  0  0  0  0  0  0
   -2.7230   -1.2460   -0.5030 H   0  0  0  0  0  0  0  0  0  0  0  0
   -4.8980   -1.9900   -0.4320 H   0  0  0  0  0  0  0  0  0  0  0  0
   -5.4100   -1.5840    1.9460 H   0  0  0  0  0  0  0  0  0  0  0  0
   -6.5780   -0.3190    1.4930 H   0  0  0  0  0  0  0  0  0  0  0  0
   -6.7460   -3.2670    0.7190 H   0  0  0  0  0  0  0  0  0  0  0  0
   -7.7380   -2.4570    1.9550 H   0  0  0  0  0  0  0  0  0  0  0  0
   -8.9250   -3.8030   -0.4470 H   0  0  0  0  0  0  0  0  0  0  0  0
   -9.7620   -2.9200    0.8520 H   0  0  0  0  0  0  0  0  0  0  0  0
  -10.0050   -2.4470   -0.8470 H   0  0  0  0  0  0  0  0  0  0  0  0
   -7.0200   -2.6910   -1.6070 H   0  0  0  0  0  0  0  0  0  0  0  0
   -8.2130   -1.4570   -2.0790 H   0  0  0  0  0  0  0  0  0  0  0  0
   -6.8650    0.2870   -0.9520 H   0  0  0  0  0  0  0  0  0  0  0  0
   -5.8960   -0.5630   -2.1810 H   0  0  0  0  0  0  0  0  0  0  0  0
   -3.6250    5.5040    1.2840 H   0  0  0  0  0  0  0  0  0  0  0  0
   -2.4610    4.2410    1.7500 H   0  0  0  0  0  0  0  0  0  0  0  0
   -2.6680    4.6720    0.0360 H   0  0  0  0  0  0  0  0  0  0  0  0
   -1.7350    2.8300    0.3900 H   0  0  0  0  0  0  0  0  0  0  0  0
   -0.0030    2.3510   -0.0020 H   0  0  0  0  0  0  0  0  0  0  0  0
    1.3270   -0.3420   -1.8380 H   0  0  0  0  0  0  0  0  0  0  0  0
    3.7210   -0.8630   -2.0660 H   0  0  0  0  0  0  0  0  0  0  0  0
    7.8940   -0.7240    1.7680 H   0  0  0  0  0  0  0  0  0  0  0  0
    6.3010   -0.0090    2.1660 H   0  0  0  0  0  0  0  0  0  0  0  0
    7.0250   -2.3510    3.3100 H   0  0  0  0  0  0  0  0  0  0  0  0
    5.3470   -2.1590    2.7010 H   0  0  0  0  0  0  0  0  0  0  0  0
    7.7370   -3.5070    1.3210 H   0  0  0  0  0  0  0  0  0  0  0  0
    6.0540   -4.1080    1.4690 H   0  0  0  0  0  0  0  0  0  0  0  0
    5.2830   -2.7440   -0.2590 H   0  0  0  0  0  0  0  0  0  0  0  0
    6.9970   -2.7430   -0.7610 H   0  0  0  0  0  0  0  0  0  0  0  0
 17 18  1  0  0  0  0
  1 17  1  0  0  0  0
  1  2  2  0  0  0  0
  1 19  1  0  0  0  0
  2  3  1  0  0  0  0
 15 16  1  0  0  0  0
 10 16  1  0  0  0  0
  8 19  2  0  0  0  0
 13 15  1  0  0  0  0
 13 14  1  0  0  0  0
 12 13  1  0  0  0  0
  3 10  1  0  0  0  0
  3  9  2  0  0  0  0
 10 11  1  0  0  0  0
 11 12  1  0  0  0  0
  8  9  1  0  0  0  0
  7  8  1  0  0  0  0
  7 20  1  0  0  0  0
 20 21  1  0  0  0  0
  6  7  2  0  0  0  0
  4 21  2  0  0  0  0
  4  5  1  0  0  0  0
 21 22  1  0  0  0  0
  5 24  2  0  0  0  0
 22 23  2  0  0  0  0
 23 24  1  0  0  0  0
 24 25  1  0  0  0  0
 25 27  2  0  0  0  0
 25 26  2  0  0  0  0
 25 28  1  0  0  0  0
 28 29  1  0  0  0  0
 29 30  1  0  0  0  0
 28 32  1  0  0  0  0
 31 32  1  0  0  0  0
 30 31  1  0  0  0  0
  2 33  1  0  0  0  0
  4 34  1  0  0  0  0
  5 35  1  0  0  0  0
  9 36  1  0  0  0  0
 10 37  1  0  0  0  0
 11 38  1  0  0  0  0
 11 39  1  0  0  0  0
 12 40  1  0  0  0  0
 12 41  1  0  0  0  0
 14 42  1  0  0  0  0
 14 43  1  0  0  0  0
 14 44  1  0  0  0  0
 15 45  1  0  0  0  0
 15 46  1  0  0  0  0
 16 47  1  0  0  0  0
 16 48  1  0  0  0  0
 18 49  1  0  0  0  0
 18 50  1  0  0  0  0
 18 51  1  0  0  0  0
 19 52  1  0  0  0  0
 20 53  1  0  0  0  0
 22 54  1  0  0  0  0
 23 55  1  0  0  0  0
 29 56  1  0  0  0  0
 29 57  1  0  0  0  0
 30 58  1  0  0  0  0
 30 59  1  0  0  0  0
 31 60  1  0  0  0  0
 31 61  1  0  0  0  0
 32 62  1  0  0  0  0
 32 63  1  0  0  0  0
M  END
> <OPENEYE_ISO_SMILES>
CN1CCC(CC1)c2cc(cc(c2)OC)C(=O)Nc3ccc(cc3)S(=O)(=O)N4CCCC4

> <OPENEYE_INCHI>
InChI=1S/C24H31N3O4S/c1-26-13-9-18(10-14-26)19-15-20(17-22(16-19)31-2)24(28)25-21-5-7-23(8-6-21)32(29,30)27-11-3-4-12-27/h5-8,15-18H,3-4,9-14H2,1-2H3,(H,25,28)

> <OPENEYE_INCHIKEY>
JTGUXSIYSIXMPK-UHFFFAOYSA-N

> <FORMULA>
C24H31N3O4S

$$$$
