@<TRIPOS>MOLECULE
/home/pku/3cl/gett_pdb/7JYC/7JYC_mol2/ligand/7JYC_NNA.pdb
 49 52 0 0 0
SMALL
GASTEIGER

@<TRIPOS>ATOM
      1  C1       125.1800    4.7440   22.5650 C.2   401  NNA401      0.3396
      2  O2       125.6570    4.3570   23.6560 O.2   401  NNA401     -0.2492
      3  N3       125.8480    5.5240   21.6970 N.am  401  NNA401     -0.1889
      4  C4       127.1690    6.1250   21.9390 C.3   401  NNA401      0.1021
      5  C5       127.5380    6.9790   20.7210 C.3   401  NNA401      0.0218
      6  C6       128.2520    5.0580   22.1350 C.3   401  NNA401      0.0218
      7  C7       127.8450    6.1420   19.4870 C.3   401  NNA401      0.0018
      8  C8       128.4940    4.2250   20.8860 C.3   401  NNA401      0.0018
      9  C9       128.9350    5.1330   19.7630 C.3   401  NNA401      0.0001
     10  C10      127.0980    6.9890   23.2420 C.3   401  NNA401      0.1705
     11  S11      126.0120    8.3980   23.1750 S.O2  401  NNA401     -0.0115
     12  O12      124.7900    8.0420   22.5080 O.2   401  NNA401     -0.1730
     13  O13      126.7380    9.5100   22.6420 O.2   401  NNA401     -0.1730
     14  C14      125.5270    8.7910   24.8710 C.3   401  NNA401      0.1108
     15  C15      124.6870    7.6530   25.4400 C.3   401  NNA401      0.0236
     16  C16      126.8170    8.9610   25.6720 C.3   401  NNA401      0.0236
     17  C17      124.7180   10.0830   24.8700 C.3   401  NNA401      0.0236
     18  N18      123.9270    4.4340   22.1860 N.am  401  NNA401     -0.1796
     19  C19      123.1660    3.4080   22.8760 C.3   401  NNA401      0.1727
     20  C20      121.7430    3.8860   23.1750 C.3   401  NNA401      0.0270
     21  C21      120.9820    2.7690   23.8710 C.3   401  NNA401      0.0022
     22  C22      121.8320    5.0900   24.1100 C.3   401  NNA401      0.0022
     23  C23      120.9510    4.2950   21.9330 C.3   401  NNA401      0.0022
     24  C24      123.3160    2.0870   22.1070 C.2   401  NNA401      0.2459
     25  O25      122.9570    2.0020   20.9460 O.2   401  NNA401     -0.2730
     26  N26      123.8220    1.0350   22.7730 N.am  401  NNA401     -0.2716
     27  C27      124.2270    1.0460   24.1980 C.3   401  NNA401      0.0939
     28  C28      123.9900   -0.2830   22.1530 C.3   401  NNA401      0.1535
     29  C29      124.9190   -1.0220   23.0740 C.3   401  NNA401      0.0289
     30  C30      125.0860   -0.1940   24.3390 C.3   401  NNA401      0.0220
     31  C31      126.2740   -0.4670   23.4320 C.3   401  NNA401      0.0037
     32  C32      127.2860   -1.4620   23.9630 C.3   401  NNA401      0.0001
     33  C33      126.9310    0.6640   22.6680 C.3   401  NNA401      0.0001
     34  C34      122.6600   -0.9980   22.1240 C.2   401  NNA401      0.2595
     35  O35      122.0070   -1.0820   23.1580 O.2   401  NNA401     -0.2716
     36  N36      122.2170   -1.4410   20.9440 N.am  401  NNA401     -0.2027
     37  C37      120.8690   -2.0230   20.8060 C.3   401  NNA401      0.1347
     38  C38      119.9780   -1.1000   19.9560 C.3   401  NNA401      0.0248
     39  C39      119.6050    0.2180   20.6290 C.3   401  NNA401      0.0019
     40  C40      118.5010    0.9780   19.9360 C.3   401  NNA401      0.0001
     41  C41      118.5940    0.9260   18.4470 C.3   401  NNA401      0.0000
     42  O42      121.8750   -4.2320   20.9640 O.3   401  NNA401     -0.2113
     43  C43      120.9240   -3.4780   20.2560 C.3   401  NNA401      0.2487
     44  O44      118.7770   -4.2060   19.5520 O.2   401  NNA401     -0.2705
     45  N45      119.4180   -4.7280   21.6690 N.am  401  NNA401     -0.2050
     46  C46      118.2590   -5.5290   21.9430 C.3   401  NNA401      0.0955
     47  C47      117.0550   -4.8570   22.5100 C.3   401  NNA401      0.0234
     48  C48      117.8620   -5.7750   23.3620 C.3   401  NNA401      0.0234
     49  C49      119.6120   -4.1670   20.4510 C.2   401  NNA401      0.2736
@<TRIPOS>BOND
     1    41    40    1
     2     7     9    1
     3     7     5    1
     4    44    49    2
     5     9     8    1
     6    40    39    1
     7    38    39    1
     8    38    37    1
     9    43    49    1
    10    43    37    1
    11    43    42    1
    12    49    45   am
    13     5     4    1
    14    37    36    1
    15     8     6    1
    16    36    34   am
    17    25    24    2
    18    45    46    1
    19     3     4    1
    20     3     1   am
    21    23    20    1
    22     4     6    1
    23     4    10    1
    24    46    47    1
    25    46    48    1
    26    24    26   am
    27    24    19    1
    28    34    28    1
    29    34    35    2
    30    28    26    1
    31    28    29    1
    32    18     1   am
    33    18    19    1
    34    12    11    2
    35    47    48    1
    36     1     2    2
    37    13    11    2
    38    33    31    1
    39    26    27    1
    40    19    20    1
    41    29    31    1
    42    29    30    1
    43    20    21    1
    44    20    22    1
    45    11    10    1
    46    11    14    1
    47    31    32    1
    48    31    30    1
    49    27    30    1
    50    17    14    1
    51    14    15    1
    52    14    16    1
