PF0
  -OEChem-02242320033D

 19 19  0     0  0  0  0  0  0999 V2000
   -2.0940   -1.1700   -0.0220 C   0  0  0  0  0  0  0  0  0  0  0  0
   -1.0720   -2.1010   -0.0320 C   0  0  0  0  0  0  0  0  0  0  0  0
    0.2440   -1.6860   -0.0260 C   0  0  0  0  0  0  0  0  0  0  0  0
    0.5460   -0.3230   -0.0110 C   0  0  0  0  0  0  0  0  0  0  0  0
   -0.4880    0.6150   -0.0020 C   0  0  0  0  0  0  0  0  0  0  0  0
   -1.8040    0.1880   -0.0070 C   0  0  0  0  0  0  0  0  0  0  0  0
   -0.1710    2.0880    0.0150 C   0  0  0  0  0  0  0  0  0  0  0  0
    1.9540    0.1250   -0.0050 C   0  0  0  0  0  0  0  0  0  0  0  0
    2.9470   -0.7780    0.1120 O   0  0  0  0  0  0  0  0  0  0  0  0
   -2.8140    1.0980    0.0020 O   0  0  0  0  0  0  0  0  0  0  0  0
    2.2160    1.3060   -0.1060 O   0  0  0  0  0  0  0  0  0  0  0  0
   -3.1220   -1.5010   -0.0310 H   0  0  0  0  0  0  0  0  0  0  0  0
   -1.3040   -3.1550   -0.0430 H   0  0  0  0  0  0  0  0  0  0  0  0
    1.0410   -2.4160   -0.0340 H   0  0  0  0  0  0  0  0  0  0  0  0
    0.0210    2.4300   -1.0020 H   0  0  0  0  0  0  0  0  0  0  0  0
   -1.0170    2.6370    0.4290 H   0  0  0  0  0  0  0  0  0  0  0  0
    0.7120    2.2630    0.6300 H   0  0  0  0  0  0  0  0  0  0  0  0
    3.8520   -0.4370    0.1110 H   0  0  0  0  0  0  0  0  0  0  0  0
   -3.1060    1.3510    0.8880 H   0  0  0  0  0  0  0  0  0  0  0  0
  1  2  2  0  0  0  0
  1  6  1  0  0  0  0
  1 12  1  0  0  0  0
  2  3  1  0  0  0  0
  2 13  1  0  0  0  0
  3  4  2  0  0  0  0
  3 14  1  0  0  0  0
  4  5  1  0  0  0  0
  4  8  1  0  0  0  0
  5  6  2  0  0  0  0
  5  7  1  0  0  0  0
  6 10  1  0  0  0  0
  7 15  1  0  0  0  0
  7 16  1  0  0  0  0
  7 17  1  0  0  0  0
  8  9  1  0  0  0  0
  8 11  2  0  0  0  0
  9 18  1  0  0  0  0
 10 19  1  0  0  0  0
M  END
> <OPENEYE_ISO_SMILES>
Cc1c(cccc1O)C(=O)O

> <OPENEYE_INCHI>
InChI=1S/C8H8O3/c1-5-6(8(10)11)3-2-4-7(5)9/h2-4,9H,1H3,(H,10,11)

> <OPENEYE_INCHIKEY>
RIERSGULWXEJKL-UHFFFAOYSA-N

> <FORMULA>
C8H8O3

$$$$
