@<TRIPOS>MOLECULE
/home/pku/3cl/gett_pdb/7QKB/7QKB_mol2/ligand/7QKB_PEG.pdb
 17 16 0 0 0
SMALL
GASTEIGER

@<TRIPOS>ATOM
      1  C1         8.6080  -12.4930    0.3840 C.3   401  PEG401      0.0676
      2  O1         9.2320  -11.9840    1.5640 O.3   401  PEG401     -0.3927
      3  C2         9.6050  -13.0740   -0.5550 C.3   401  PEG401      0.0708
      4  O2         9.8440  -14.4250   -0.1890 O.3   401  PEG401     -0.3753
      5  C3         8.8420  -15.3270   -0.6500 C.3   401  PEG401      0.0708
      6  C4         9.2520  -16.7480   -0.3340 C.3   401  PEG401      0.0676
      7  O4         8.1400  -17.5810   -0.1740 O.3   401  PEG401     -0.3927
      8  H11        7.8770  -13.2510    0.6610 H     401  PEG401      0.0580
      9  H12        8.0610  -11.6900   -0.1090 H     401  PEG401      0.0580
     10  HO1        8.5520  -11.4510    2.0540 H     401  PEG401      0.2095
     11  H21        9.2390  -13.0110   -1.5790 H     401  PEG401      0.0583
     12  H22       10.5280  -12.4980   -0.5280 H     401  PEG401      0.0583
     13  H31        7.8860  -15.0960   -0.1820 H     401  PEG401      0.0583
     14  H32        8.6920  -15.2040   -1.7210 H     401  PEG401      0.0583
     15  H41        9.8500  -17.2110   -1.1180 H     401  PEG401      0.0580
     16  H42        9.8180  -16.8420    0.5910 H     401  PEG401      0.0580
     17  HO4        8.3410  -18.2060    0.5710 H     401  PEG401      0.2095
@<TRIPOS>BOND
     1    14     5    1
     2    11     3    1
     3    15     6    1
     4     5     6    1
     5     5     4    1
     6     5    13    1
     7     3    12    1
     8     3     4    1
     9     3     1    1
    10     6     7    1
    11     6    16    1
    12     7    17    1
    13     9     1    1
    14     1     8    1
    15     1     2    1
    16     2    10    1
