7W5
  -OEChem-02242320013D

 82 83  0     1  0  0  0  0  0999 V2000
   -9.7580    0.4200    2.1890 C   0  0  0  0  0  0  0  0  0  0  0  0
   -0.4710    1.0760   -2.9690 C   0  0  0  0  0  0  0  0  0  0  0  0
   -1.7980    0.2030   -1.0400 C   0  0  2  0  0  0  0  0  0  0  0  0
   -0.5940    0.2080   -0.1340 C   0  0  0  0  0  0  0  0  0  0  0  0
    2.9430   -2.8020   -0.3020 C   0  0  0  0  0  0  0  0  0  0  0  0
    1.7830   -0.1500    0.2660 C   0  0  2  0  0  0  0  0  0  0  0  0
    3.0340   -0.3010   -0.5610 C   0  0  0  0  0  0  0  0  0  0  0  0
    5.4560   -0.4670   -0.7650 C   0  0  1  0  0  0  0  0  0  0  0  0
    6.6410    0.1420   -0.0140 C   0  0  0  0  0  0  0  0  0  0  0  0
   -9.4310    1.3370    1.2080 C   0  0  0  0  0  0  0  0  0  0  0  0
    6.4320    1.6500    0.1320 C   0  0  2  0  0  0  0  0  0  0  0  0
    7.6330    2.2950    0.8620 C   0  0  0  0  0  0  0  0  0  0  0  0
    7.1470    2.2960    2.3280 C   0  0  0  0  0  0  0  0  0  0  0  0
    5.2520    1.9370    1.0340 C   0  0  0  0  0  0  0  0  0  0  0  0
   -8.3930    1.0740    0.3330 C   0  0  0  0  0  0  0  0  0  0  0  0
   -1.6740    1.3370   -2.0600 C   0  0  0  0  0  0  0  0  0  0  0  0
   -1.4790    2.6640   -1.3240 C   0  0  0  0  0  0  0  0  0  0  0  0
   -2.9470    1.4040   -2.9050 C   0  0  0  0  0  0  0  0  0  0  0  0
    1.6840   -1.3100    1.2580 C   0  0  0  0  0  0  0  0  0  0  0  0
    1.6460   -2.6340    0.4920 C   0  0  0  0  0  0  0  0  0  0  0  0
    0.4560   -2.6330   -0.4700 C   0  0  0  0  0  0  0  0  0  0  0  0
    1.5000   -3.7920    1.4820 C   0  0  0  0  0  0  0  0  0  0  0  0
   -7.6830   -0.1070    0.4400 C   0  0  0  0  0  0  0  0  0  0  0  0
   -8.0090   -1.0250    1.4210 C   0  0  0  0  0  0  0  0  0  0  0  0
   -9.0480   -0.7620    2.2950 C   0  0  0  0  0  0  0  0  0  0  0  0
   -6.5520   -0.3940   -0.5140 C   0  0  0  0  0  0  0  0  0  0  0  0
    5.7220   -1.9520   -1.0200 C   0  0  0  0  0  0  0  0  0  0  0  0
   -4.1960   -0.0580   -0.6960 C   0  0  0  0  0  0  0  0  0  0  0  0
   -3.0110    0.3950   -0.2410 N   0  0  0  0  0  0  0  0  0  0  0  0
    0.6120   -0.1580   -0.6140 N   0  0  0  0  0  0  0  0  0  0  0  0
    4.2400   -0.3200    0.0390 N   0  0  0  0  0  0  0  0  0  0  0  0
    5.6810    2.3010    2.2540 N   0  0  0  0  0  0  0  0  0  0  0  0
    4.0880    1.8510    0.7030 O   0  0  0  0  0  0  0  0  0  0  0  0
   -4.2590   -0.6250   -1.7690 O   0  0  0  0  0  0  0  0  0  0  0  0
   -0.7090    0.5410    1.0260 O   0  0  0  0  0  0  0  0  0  0  0  0
    2.9540   -0.4050   -1.7670 O   0  0  0  0  0  0  0  0  0  0  0  0
   -5.3110    0.1190    0.0380 O   0  0  0  0  0  0  0  0  0  0  0  0
    6.0070   -2.6050    0.2190 O   0  0  0  0  0  0  0  0  0  0  0  0
  -10.5660    0.6270    2.8750 H   0  0  0  0  0  0  0  0  0  0  0  0
    0.4420    1.0790   -2.3740 H   0  0  0  0  0  0  0  0  0  0  0  0
   -0.5860    0.1060   -3.4540 H   0  0  0  0  0  0  0  0  0  0  0  0
   -0.4130    1.8570   -3.7270 H   0  0  0  0  0  0  0  0  0  0  0  0
   -1.8550   -0.7520   -1.5640 H   0  0  0  0  0  0  0  0  0  0  0  0
    3.7900   -2.5150    0.3220 H   0  0  0  0  0  0  0  0  0  0  0  0
    3.0510   -3.8430   -0.6060 H   0  0  0  0  0  0  0  0  0  0  0  0
    2.9120   -2.1660   -1.1870 H   0  0  0  0  0  0  0  0  0  0  0  0
    1.8210    0.7930    0.8120 H   0  0  0  0  0  0  0  0  0  0  0  0
    5.3260    0.0470   -1.7170 H   0  0  0  0  0  0  0  0  0  0  0  0
    6.7160   -0.3120    0.9750 H   0  0  0  0  0  0  0  0  0  0  0  0
    7.5600   -0.0460   -0.5700 H   0  0  0  0  0  0  0  0  0  0  0  0
   -9.9860    2.2600    1.1250 H   0  0  0  0  0  0  0  0  0  0  0  0
    6.2860    2.1100   -0.8460 H   0  0  0  0  0  0  0  0  0  0  0  0
    8.5310    1.6870    0.7490 H   0  0  0  0  0  0  0  0  0  0  0  0
    7.8050    3.3120    0.5070 H   0  0  0  0  0  0  0  0  0  0  0  0
    7.4950    1.4000    2.8410 H   0  0  0  0  0  0  0  0  0  0  0  0
   -8.1380    1.7900   -0.4330 H   0  0  0  0  0  0  0  0  0  0  0  0
   -1.3900    3.4730   -2.0510 H   0  0  0  0  0  0  0  0  0  0  0  0
   -2.3360    2.8500   -0.6770 H   0  0  0  0  0  0  0  0  0  0  0  0
   -0.5720    2.6160   -0.7220 H   0  0  0  0  0  0  0  0  0  0  0  0
   -3.0860    0.4590   -3.4290 H   0  0  0  0  0  0  0  0  0  0  0  0
   -3.8040    1.5900   -2.2570 H   0  0  0  0  0  0  0  0  0  0  0  0
   -2.8590    2.2120   -3.6320 H   0  0  0  0  0  0  0  0  0  0  0  0
    2.5500   -1.2980    1.9190 H   0  0  0  0  0  0  0  0  0  0  0  0
    0.7740   -1.2060    1.8490 H   0  0  0  0  0  0  0  0  0  0  0  0
    0.7140   -2.0670   -1.3650 H   0  0  0  0  0  0  0  0  0  0  0  0
    0.2110   -3.6580   -0.7460 H   0  0  0  0  0  0  0  0  0  0  0  0
   -0.4040   -2.1710    0.0160 H   0  0  0  0  0  0  0  0  0  0  0  0
    0.5760   -3.6720    2.0470 H   0  0  0  0  0  0  0  0  0  0  0  0
    1.4730   -4.7350    0.9360 H   0  0  0  0  0  0  0  0  0  0  0  0
    2.3480   -3.7930    2.1670 H   0  0  0  0  0  0  0  0  0  0  0  0
   -7.4550   -1.9470    1.5040 H   0  0  0  0  0  0  0  0  0  0  0  0
   -9.3040   -1.4790    3.0610 H   0  0  0  0  0  0  0  0  0  0  0  0
   -6.4660   -1.4710   -0.6620 H   0  0  0  0  0  0  0  0  0  0  0  0
   -6.7520    0.0890   -1.4700 H   0  0  0  0  0  0  0  0  0  0  0  0
    4.8420   -2.4060   -1.4750 H   0  0  0  0  0  0  0  0  0  0  0  0
    6.5750   -2.0590   -1.6910 H   0  0  0  0  0  0  0  0  0  0  0  0
   -2.9610    0.8480    0.6150 H   0  0  0  0  0  0  0  0  0  0  0  0
    0.7030   -0.4270   -1.5410 H   0  0  0  0  0  0  0  0  0  0  0  0
    4.3040   -0.2370    1.0030 H   0  0  0  0  0  0  0  0  0  0  0  0
    6.1870   -3.5510    0.1330 H   0  0  0  0  0  0  0  0  0  0  0  0
    7.5020    3.1880    2.8430 H   0  0  0  0  0  0  0  0  0  0  0  0
    5.0970    2.5370    2.9920 H   0  0  0  0  0  0  0  0  0  0  0  0
  2 16  1  0  0  0  0
  1 25  2  0  0  0  0
  1 10  1  0  0  0  0
 24 25  1  0  0  0  0
 10 15  2  0  0  0  0
 16 17  1  0  0  0  0
 16 18  1  0  0  0  0
  3 16  1  0  0  0  0
 23 24  2  0  0  0  0
 28 34  2  0  0  0  0
  7 36  2  0  0  0  0
  3  4  1  0  0  0  0
  3 29  1  0  0  0  0
 15 23  1  0  0  0  0
  4 30  1  0  0  0  0
  6 30  1  0  0  0  0
 23 26  1  0  0  0  0
 19 20  1  0  0  0  0
  6 19  1  0  0  0  0
 20 22  1  0  0  0  0
 28 29  1  0  0  0  0
 28 37  1  0  0  0  0
 20 21  1  0  0  0  0
  6  7  1  0  0  0  0
  7 31  1  0  0  0  0
  4 35  2  0  0  0  0
 12 13  1  0  0  0  0
 11 12  1  0  0  0  0
  5 20  1  0  0  0  0
 13 32  1  0  0  0  0
 26 37  1  0  0  0  0
  8 31  1  0  0  0  0
  8 27  1  0  0  0  0
  8  9  1  0  0  0  0
 27 38  1  0  0  0  0
  9 11  1  0  0  0  0
 11 14  1  0  0  0  0
 14 32  1  0  0  0  0
 14 33  2  0  0  0  0
  1 39  1  0  0  0  0
  2 40  1  0  0  0  0
  2 41  1  0  0  0  0
  2 42  1  0  0  0  0
  3 43  1  0  0  0  0
  5 44  1  0  0  0  0
  5 45  1  0  0  0  0
  5 46  1  0  0  0  0
  6 47  1  0  0  0  0
  8 48  1  0  0  0  0
  9 49  1  0  0  0  0
  9 50  1  0  0  0  0
 10 51  1  0  0  0  0
 11 52  1  0  0  0  0
 12 53  1  0  0  0  0
 12 54  1  0  0  0  0
 13 55  1  0  0  0  0
 15 56  1  0  0  0  0
 17 57  1  0  0  0  0
 17 58  1  0  0  0  0
 17 59  1  0  0  0  0
 18 60  1  0  0  0  0
 18 61  1  0  0  0  0
 18 62  1  0  0  0  0
 19 63  1  0  0  0  0
 19 64  1  0  0  0  0
 21 65  1  0  0  0  0
 21 66  1  0  0  0  0
 21 67  1  0  0  0  0
 22 68  1  0  0  0  0
 22 69  1  0  0  0  0
 22 70  1  0  0  0  0
 24 71  1  0  0  0  0
 25 72  1  0  0  0  0
 26 73  1  0  0  0  0
 26 74  1  0  0  0  0
 27 75  1  0  0  0  0
 27 76  1  0  0  0  0
 29 77  1  0  0  0  0
 30 78  1  0  0  0  0
 31 79  1  0  0  0  0
 38 80  1  0  0  0  0
 13 81  1  0  0  0  0
 32 82  1  0  0  0  0
M  END
> <OPENEYE_ISO_SMILES>
CC(C)(C)C[C@@H](C(=O)N[C@@H](C[C@@H]1CCNC1=O)CO)NC(=O)[C@H](C(C)(C)C)NC(=O)OCc2ccccc2

> <OPENEYE_INCHI>
InChI=1S/C28H44N4O6/c1-27(2,3)15-21(24(35)30-20(16-33)14-19-12-13-29-23(19)34)31-25(36)22(28(4,5)6)32-26(37)38-17-18-10-8-7-9-11-18/h7-11,19-22,33H,12-17H2,1-6H3,(H,29,34)(H,30,35)(H,31,36)(H,32,37)/t19-,20-,21-,22+/m0/s1

> <OPENEYE_INCHIKEY>
BMXUTPCWTPHBMF-MYGLTJDJSA-N

> <FORMULA>
C28H44N4O6

$$$$
