S6V
  -OEChem-02242320043D

 35 36  0     0  0  0  0  0  0999 V2000
   -2.3110    0.8220    0.6600 N   0  0  0  0  0  0  0  0  0  0  0  0
    3.6970    0.1170    0.4380 N   0  0  0  0  0  0  0  0  0  0  0  0
   -3.5470    0.3040    0.2570 C   0  0  0  0  0  0  0  0  0  0  0  0
   -4.6300    1.1530    0.0710 C   0  0  0  0  0  0  0  0  0  0  0  0
   -5.8480    0.6390   -0.3270 C   0  0  0  0  0  0  0  0  0  0  0  0
   -1.1680    0.2550    0.2250 C   0  0  0  0  0  0  0  0  0  0  0  0
    1.2610    0.0670    0.2240 C   0  0  0  0  0  0  0  0  0  0  0  0
    4.3340   -1.0480    1.0630 C   0  0  0  0  0  0  0  0  0  0  0  0
    4.3970    0.5420   -0.6280 C   0  0  0  0  0  0  0  0  0  0  0  0
   -5.9900   -0.7190   -0.5410 C   0  0  0  0  0  0  0  0  0  0  0  0
    5.3230   -1.5930    0.0080 C   0  0  0  0  0  0  0  0  0  0  0  0
    5.6150   -0.3300   -0.8330 C   0  0  0  0  0  0  0  0  0  0  0  0
   -4.9140   -1.5680   -0.3570 C   0  0  0  0  0  0  0  0  0  0  0  0
   -3.6910   -1.0590    0.0360 C   0  0  0  0  0  0  0  0  0  0  0  0
    2.4550    0.7330    0.9110 C   0  0  0  0  0  0  0  0  0  0  0  0
    0.0190    0.6830    0.6970 N   0  0  0  0  0  0  0  0  0  0  0  0
   -1.2090   -0.6440   -0.5930 O   0  0  0  0  0  0  0  0  0  0  0  0
    4.0950    1.4880   -1.3250 O   0  0  0  0  0  0  0  0  0  0  0  0
   -2.2760    1.5910    1.2500 H   0  0  0  0  0  0  0  0  0  0  0  0
   -4.5190    2.2140    0.2380 H   0  0  0  0  0  0  0  0  0  0  0  0
   -6.6910    1.2990   -0.4720 H   0  0  0  0  0  0  0  0  0  0  0  0
    1.3440    0.1980   -0.8550 H   0  0  0  0  0  0  0  0  0  0  0  0
    1.2520   -0.9970    0.4610 H   0  0  0  0  0  0  0  0  0  0  0  0
    4.8700   -0.7470    1.9630 H   0  0  0  0  0  0  0  0  0  0  0  0
    3.5850   -1.8030    1.3050 H   0  0  0  0  0  0  0  0  0  0  0  0
   -6.9440   -1.1190   -0.8520 H   0  0  0  0  0  0  0  0  0  0  0  0
    6.2300   -1.9680    0.4810 H   0  0  0  0  0  0  0  0  0  0  0  0
    4.8550   -2.3660   -0.6020 H   0  0  0  0  0  0  0  0  0  0  0  0
    5.7260   -0.5900   -1.8850 H   0  0  0  0  0  0  0  0  0  0  0  0
    6.5110    0.1720   -0.4670 H   0  0  0  0  0  0  0  0  0  0  0  0
   -5.0290   -2.6280   -0.5250 H   0  0  0  0  0  0  0  0  0  0  0  0
   -2.8500   -1.7220    0.1750 H   0  0  0  0  0  0  0  0  0  0  0  0
    2.3730    0.6020    1.9900 H   0  0  0  0  0  0  0  0  0  0  0  0
    2.4640    1.7970    0.6730 H   0  0  0  0  0  0  0  0  0  0  0  0
    0.0520    1.4000    1.3490 H   0  0  0  0  0  0  0  0  0  0  0  0
  8 11  1  0  0  0  0
 11 12  1  0  0  0  0
  2  8  1  0  0  0  0
  2 15  1  0  0  0  0
  2  9  1  0  0  0  0
  9 12  1  0  0  0  0
  6 17  2  0  0  0  0
  7 15  1  0  0  0  0
  7 16  1  0  0  0  0
  9 18  2  0  0  0  0
  6 16  1  0  0  0  0
  1  6  1  0  0  0  0
  4  5  2  0  0  0  0
  3  4  1  0  0  0  0
  5 10  1  0  0  0  0
  1  3  1  0  0  0  0
  3 14  2  0  0  0  0
 10 13  2  0  0  0  0
 13 14  1  0  0  0  0
  1 19  1  0  0  0  0
  4 20  1  0  0  0  0
  5 21  1  0  0  0  0
  7 22  1  0  0  0  0
  7 23  1  0  0  0  0
  8 24  1  0  0  0  0
  8 25  1  0  0  0  0
 10 26  1  0  0  0  0
 11 27  1  0  0  0  0
 11 28  1  0  0  0  0
 12 29  1  0  0  0  0
 12 30  1  0  0  0  0
 13 31  1  0  0  0  0
 14 32  1  0  0  0  0
 15 33  1  0  0  0  0
 15 34  1  0  0  0  0
 16 35  1  0  0  0  0
M  END
> <OPENEYE_ISO_SMILES>
c1ccc(cc1)NC(=O)NCCN2CCCC2=O

> <OPENEYE_INCHI>
InChI=1S/C13H17N3O2/c17-12-7-4-9-16(12)10-8-14-13(18)15-11-5-2-1-3-6-11/h1-3,5-6H,4,7-10H2,(H2,14,15,18)

> <OPENEYE_INCHIKEY>
OYRHWZOYGOUXNC-UHFFFAOYSA-N

> <FORMULA>
C13H17N3O2

$$$$
