GWG
  -OEChem-02242320023D

 22 23  0     0  0  0  0  0  0999 V2000
    0.7720   -1.4570    0.0000 N   0  0  0  0  0  0  0  0  0  0  0  0
   -0.6570    1.8580    0.0000 C   0  0  0  0  0  0  0  0  0  0  0  0
   -1.9920    2.1500    0.0000 C   0  0  0  0  0  0  0  0  0  0  0  0
   -2.9370    1.1320    0.0000 C   0  0  0  0  0  0  0  0  0  0  0  0
   -2.5550   -0.1800   -0.0000 C   0  0  0  0  0  0  0  0  0  0  0  0
   -1.2020   -0.5060   -0.0000 C   0  0  0  0  0  0  0  0  0  0  0  0
    2.4950    1.6590   -0.0010 O   0  0  0  0  0  0  0  0  0  0  0  0
    2.3850    0.4480   -0.0000 C   0  0  0  0  0  0  0  0  0  0  0  0
    3.4860   -0.3290    0.0000 N   0  0  0  0  0  0  0  0  0  0  0  0
    1.0470   -0.1700    0.0000 C   0  0  0  0  0  0  0  0  0  0  0  0
   -0.2450    0.5280   -0.0000 C   0  0  0  0  0  0  0  0  0  0  0  0
   -0.4920   -1.6780    0.0000 N   0  0  0  0  0  0  0  0  0  0  0  0
   -1.0980   -3.0120   -0.0000 C   0  0  0  0  0  0  0  0  0  0  0  0
    0.0740    2.6540   -0.0000 H   0  0  0  0  0  0  0  0  0  0  0  0
   -2.3150    3.1810    0.0010 H   0  0  0  0  0  0  0  0  0  0  0  0
   -3.9880    1.3810    0.0010 H   0  0  0  0  0  0  0  0  0  0  0  0
   -3.3000   -0.9620   -0.0000 H   0  0  0  0  0  0  0  0  0  0  0  0
    4.3660    0.0780    0.0000 H   0  0  0  0  0  0  0  0  0  0  0  0
    3.3980   -1.2950    0.0010 H   0  0  0  0  0  0  0  0  0  0  0  0
   -1.2490   -3.3430    1.0270 H   0  0  0  0  0  0  0  0  0  0  0  0
   -2.0590   -2.9740   -0.5150 H   0  0  0  0  0  0  0  0  0  0  0  0
   -0.4380   -3.7110   -0.5140 H   0  0  0  0  0  0  0  0  0  0  0  0
  7  8  2  0  0  0  0
  1 12  1  0  0  0  0
  1 10  2  0  0  0  0
 12 13  1  0  0  0  0
  8 10  1  0  0  0  0
  8  9  1  0  0  0  0
  6 12  1  0  0  0  0
 10 11  1  0  0  0  0
  6 11  2  0  0  0  0
  5  6  1  0  0  0  0
  2 11  1  0  0  0  0
  4  5  2  0  0  0  0
  2  3  2  0  0  0  0
  3  4  1  0  0  0  0
  2 14  1  0  0  0  0
  3 15  1  0  0  0  0
  4 16  1  0  0  0  0
  5 17  1  0  0  0  0
  9 18  1  0  0  0  0
  9 19  1  0  0  0  0
 13 20  1  0  0  0  0
 13 21  1  0  0  0  0
 13 22  1  0  0  0  0
M  END
> <OPENEYE_ISO_SMILES>
Cn1c2ccccc2c(n1)C(=O)N

> <OPENEYE_INCHI>
InChI=1S/C9H9N3O/c1-12-7-5-3-2-4-6(7)8(11-12)9(10)13/h2-5H,1H3,(H2,10,13)

> <OPENEYE_INCHIKEY>
PVROETJHCUDAFG-UHFFFAOYSA-N

> <FORMULA>
C9H9N3O

$$$$
