@<TRIPOS>MOLECULE
/home/pku/3cl/gett_pdb/7B2U/7B2U_mol2/ligand/7B2U_SQ5.pdb
 21 23 0 0 0
SMALL
GASTEIGER

@<TRIPOS>ATOM
      1  C4        -2.7640   -0.2250   12.1530 C.3   401  SQ5401      0.0022
      2  C14       -0.4530   -2.8240   19.2490 C.ar  401  SQ5401      0.1605
      3  C5        -2.1870    0.4850   10.9300 C.3   401  SQ5401      0.0001
      4  C6        -2.5950   -0.1780    9.6170 C.3   401  SQ5401      0.0000
      5  C11       -0.8410   -1.4110   17.4070 C.ar  401  SQ5401      0.0836
      6  C7        -4.1030   -0.2780    9.5120 C.3   401  SQ5401      0.0000
      7  C8        -4.6430   -1.0910   10.6690 C.3   401  SQ5401      0.0000
      8  C9        -4.2700   -0.4450   12.0000 C.3   401  SQ5401      0.0001
      9  C10       -2.0040   -1.0800   15.2030 C.2   401  SQ5401      0.2563
     10  C12        0.5390   -1.3440   17.2380 C.ar  401  SQ5401      0.1143
     11  C13        0.9020   -2.7230   19.0350 C.ar  401  SQ5401      0.1285
     12  N1        -3.1220    0.8570   15.7490 N.am  401  SQ5401     -0.1802
     13  N2        -1.7130   -0.7020   16.5110 N.am  401  SQ5401     -0.1881
     14  C3        -2.4660    0.5690   13.4220 C.3   401  SQ5401      0.0311
     15  N3         1.3910   -1.9830   18.0410 N.ar  401  SQ5401     -0.2386
     16  C1        -2.3880    0.5090   16.8100 C.2   401  SQ5401      0.3333
     17  C15       -1.3490   -2.1770   18.4380 C.ar  401  SQ5401      0.0482
     18  C2        -3.0390   -0.1090   14.6590 C.3   401  SQ5401      0.1736
     19  F1        -0.9110   -3.5940   20.2750 F     401  SQ5401     -0.2025
     20  O1        -2.3050    1.1150   17.8540 O.2   401  SQ5401     -0.2500
     21  O2        -1.5440   -2.0330   14.6200 O.2   401  SQ5401     -0.2722
@<TRIPOS>BOND
     1     6     4    1
     2     6     7    1
     3     4     3    1
     4     7     8    1
     5     3     1    1
     6     8     1    1
     7     1    14    1
     8    14    18    1
     9    21     9    2
    10    18     9    1
    11    18    12    1
    12     9    13   am
    13    12    16   am
    14    13    16   am
    15    13     5    1
    16    16    20    2
    17    10     5   ar
    18    10    15   ar
    19     5    17   ar
    20    15    11   ar
    21    17     2   ar
    22    11     2   ar
    23     2    19    1
