5ZF
  -OEChem-02242320013D

 61 64  0     1  0  0  0  0  0999 V2000
   -7.0400   -3.4910    0.3630 C   0  0  0  0  0  0  0  0  0  0  0  0
   -6.7780   -0.7440    0.0910 C   0  0  0  0  0  0  0  0  0  0  0  0
   -2.9000    1.0010   -0.1530 C   0  0  0  0  0  0  0  0  0  0  0  0
    1.2680    0.9790    1.4690 C   0  0  0  0  0  0  0  0  0  0  0  0
    2.3330    2.6510    3.3310 C   0  0  0  0  0  0  0  0  0  0  0  0
    2.8020    1.3530    3.2530 C   0  0  0  0  0  0  0  0  0  0  0  0
    2.2630    0.4960    2.3060 C   0  0  0  0  0  0  0  0  0  0  0  0
    4.5560    0.4570   -1.8200 C   0  0  0  0  0  0  0  0  0  0  0  0
    5.5110   -2.7740   -1.5120 C   0  0  0  0  0  0  0  0  0  0  0  0
    0.7650    2.2460   -1.2480 O   0  0  0  0  0  0  0  0  0  0  0  0
   -0.3270    1.9430   -0.8150 C   0  0  0  0  0  0  0  0  0  0  0  0
   -0.4970    0.7660   -0.1820 N   0  0  0  0  0  0  0  0  0  0  0  0
   -1.7700    0.1920   -0.1020 C   0  0  0  0  0  0  0  0  0  0  0  0
   -1.9040   -1.1850    0.0280 C   0  0  0  0  0  0  0  0  0  0  0  0
   -3.1580   -1.7520    0.1070 C   0  0  0  0  0  0  0  0  0  0  0  0
   -4.2920   -0.9430    0.0560 C   0  0  0  0  0  0  0  0  0  0  0  0
   -5.6430   -1.5520    0.1410 C   0  0  0  0  0  0  0  0  0  0  0  0
   -5.7810   -2.9320    0.2780 C   0  0  0  0  0  0  0  0  0  0  0  0
   -8.1630   -2.6860    0.3070 C   0  0  0  0  0  0  0  0  0  0  0  0
   -8.0320   -1.3160    0.1710 C   0  0  0  0  0  0  0  0  0  0  0  0
   -4.1560    0.4380   -0.0750 C   0  0  0  0  0  0  0  0  0  0  0  0
    0.6510    0.0860    0.4240 C   0  0  1  0  0  0  0  0  0  0  0  0
    0.8460    2.2870    1.6100 C   0  0  0  0  0  0  0  0  0  0  0  0
    1.3820    3.0750    2.5220 N   0  0  0  0  0  0  0  0  0  0  0  0
    1.6720   -0.2210   -0.6410 C   0  0  0  0  0  0  0  0  0  0  0  0
    2.9320   -0.5480   -0.2920 N   0  0  0  0  0  0  0  0  0  0  0  0
    3.9240   -0.8460   -1.3280 C   0  0  2  0  0  0  0  0  0  0  0  0
    4.9950   -1.7380   -0.7550 C   0  0  0  0  0  0  0  0  0  0  0  0
    6.4930   -3.5920   -0.9860 C   0  0  0  0  0  0  0  0  0  0  0  0
    6.9600   -3.3750    0.2970 C   0  0  0  0  0  0  0  0  0  0  0  0
    6.4450   -2.3390    1.0540 C   0  0  0  0  0  0  0  0  0  0  0  0
    5.4620   -1.5210    0.5280 C   0  0  0  0  0  0  0  0  0  0  0  0
    1.3600   -0.1730   -1.8120 O   0  0  0  0  0  0  0  0  0  0  0  0
   -1.4920    2.8830   -0.9860 C   0  0  0  0  0  0  0  0  0  0  0  0
   -0.9330    4.3930   -1.7950 Cl  0  0  0  0  0  0  0  0  0  0  0  0
   -7.1480   -4.5610    0.4690 H   0  0  0  0  0  0  0  0  0  0  0  0
   -6.6760    0.3260   -0.0150 H   0  0  0  0  0  0  0  0  0  0  0  0
   -2.7930    2.0710   -0.2500 H   0  0  0  0  0  0  0  0  0  0  0  0
    2.7480    3.3250    4.0660 H   0  0  0  0  0  0  0  0  0  0  0  0
    3.5820    1.0130    3.9180 H   0  0  0  0  0  0  0  0  0  0  0  0
    2.6100   -0.5230    2.2220 H   0  0  0  0  0  0  0  0  0  0  0  0
    5.0420    0.9630   -0.9850 H   0  0  0  0  0  0  0  0  0  0  0  0
    5.2940    0.2350   -2.5900 H   0  0  0  0  0  0  0  0  0  0  0  0
    3.7810    1.1020   -2.2340 H   0  0  0  0  0  0  0  0  0  0  0  0
    5.1420   -2.9470   -2.5120 H   0  0  0  0  0  0  0  0  0  0  0  0
   -1.0250   -1.8110    0.0670 H   0  0  0  0  0  0  0  0  0  0  0  0
   -3.2620   -2.8230    0.2080 H   0  0  0  0  0  0  0  0  0  0  0  0
   -4.9050   -3.5620    0.3180 H   0  0  0  0  0  0  0  0  0  0  0  0
   -9.1460   -3.1280    0.3700 H   0  0  0  0  0  0  0  0  0  0  0  0
   -8.9120   -0.6910    0.1320 H   0  0  0  0  0  0  0  0  0  0  0  0
   -5.0330    1.0660   -0.1140 H   0  0  0  0  0  0  0  0  0  0  0  0
    0.3200   -0.8420    0.8890 H   0  0  0  0  0  0  0  0  0  0  0  0
    0.0690    2.6700    0.9650 H   0  0  0  0  0  0  0  0  0  0  0  0
    3.1810   -0.5860    0.6440 H   0  0  0  0  0  0  0  0  0  0  0  0
    3.4380   -1.3520   -2.1620 H   0  0  0  0  0  0  0  0  0  0  0  0
    6.8950   -4.4010   -1.5770 H   0  0  0  0  0  0  0  0  0  0  0  0
    7.7270   -4.0140    0.7080 H   0  0  0  0  0  0  0  0  0  0  0  0
    6.8100   -2.1700    2.0560 H   0  0  0  0  0  0  0  0  0  0  0  0
    5.0600   -0.7120    1.1200 H   0  0  0  0  0  0  0  0  0  0  0  0
   -2.2580    2.4050   -1.5970 H   0  0  0  0  0  0  0  0  0  0  0  0
   -1.9080    3.1270   -0.0080 H   0  0  0  0  0  0  0  0  0  0  0  0
  5 24  2  0  0  0  0
  5  6  1  0  0  0  0
 23 24  1  0  0  0  0
  6  7  2  0  0  0  0
  4 23  2  0  0  0  0
  4  7  1  0  0  0  0
  4 22  1  0  0  0  0
 10 11  2  0  0  0  0
 34 35  1  0  0  0  0
 11 34  1  0  0  0  0
 11 12  1  0  0  0  0
 25 33  2  0  0  0  0
 12 22  1  0  0  0  0
 12 13  1  0  0  0  0
 22 25  1  0  0  0  0
  3 13  2  0  0  0  0
  3 21  1  0  0  0  0
 25 26  1  0  0  0  0
 13 14  1  0  0  0  0
 16 21  2  0  0  0  0
 26 27  1  0  0  0  0
  8 27  1  0  0  0  0
 27 28  1  0  0  0  0
  9 28  2  0  0  0  0
  9 29  1  0  0  0  0
 14 15  2  0  0  0  0
 28 32  1  0  0  0  0
 15 16  1  0  0  0  0
 16 17  1  0  0  0  0
 29 30  2  0  0  0  0
  2 17  2  0  0  0  0
  2 20  1  0  0  0  0
 17 18  1  0  0  0  0
 31 32  2  0  0  0  0
 19 20  2  0  0  0  0
 30 31  1  0  0  0  0
  1 18  2  0  0  0  0
  1 19  1  0  0  0  0
  1 36  1  0  0  0  0
  2 37  1  0  0  0  0
  3 38  1  0  0  0  0
  5 39  1  0  0  0  0
  6 40  1  0  0  0  0
  7 41  1  0  0  0  0
  8 42  1  0  0  0  0
  8 43  1  0  0  0  0
  8 44  1  0  0  0  0
  9 45  1  0  0  0  0
 14 46  1  0  0  0  0
 15 47  1  0  0  0  0
 18 48  1  0  0  0  0
 19 49  1  0  0  0  0
 20 50  1  0  0  0  0
 21 51  1  0  0  0  0
 22 52  1  0  0  0  0
 23 53  1  0  0  0  0
 26 54  1  0  0  0  0
 27 55  1  0  0  0  0
 29 56  1  0  0  0  0
 30 57  1  0  0  0  0
 31 58  1  0  0  0  0
 32 59  1  0  0  0  0
 34 60  1  0  0  0  0
 34 61  1  0  0  0  0
M  END
> <OPENEYE_ISO_SMILES>
C[C@@H](c1ccccc1)NC(=O)[C@@H](c2cccnc2)N(c3ccc(cc3)c4ccccc4)C(=O)CCl

> <OPENEYE_INCHI>
InChI=1S/C29H26ClN3O2/c1-21(22-9-4-2-5-10-22)32-29(35)28(25-13-8-18-31-20-25)33(27(34)19-30)26-16-14-24(15-17-26)23-11-6-3-7-12-23/h2-18,20-21,28H,19H2,1H3,(H,32,35)/t21-,28+/m0/s1

> <OPENEYE_INCHIKEY>
XQECDPKLDAEYEC-RBTNQOKQSA-N

> <FORMULA>
C29H26ClN3O2

$$$$
