6V9
  -OEChem-02242320013D

 14 14  0     0  0  0  0  0  0999 V2000
   -1.9220   -0.0970   -0.0020 C   0  0  0  0  0  0  0  0  0  0  0  0
   -3.3930    0.2310   -0.0020 C   0  0  0  0  0  0  0  0  0  0  0  0
    1.9920   -0.0460   -0.0010 C   0  0  0  0  0  0  0  0  0  0  0  0
    2.7230   -1.0180   -0.0020 O   0  0  0  0  0  0  0  0  0  0  0  0
    0.5380   -0.2230   -0.0010 C   0  0  0  0  0  0  0  0  0  0  0  0
   -0.6660    1.0640    0.0010 S   0  0  0  0  0  0  0  0  0  0  0  0
   -1.4340   -1.2950    0.0020 N   0  0  0  0  0  0  0  0  0  0  0  0
   -0.1300   -1.4160    0.0020 C   0  0  0  0  0  0  0  0  0  0  0  0
   -3.7470    0.3120   -1.0290 H   0  0  0  0  0  0  0  0  0  0  0  0
   -3.9410   -0.5600    0.5110 H   0  0  0  0  0  0  0  0  0  0  0  0
   -3.5540    1.1780    0.5130 H   0  0  0  0  0  0  0  0  0  0  0  0
    0.3720   -2.3720    0.0050 H   0  0  0  0  0  0  0  0  0  0  0  0
    2.5210    1.1950    0.0010 O   0  0  0  0  0  0  0  0  0  0  0  0
    3.4850    1.2620    0.0010 H   0  0  0  0  0  0  0  0  0  0  0  0
  7  8  1  0  0  0  0
  1  7  2  0  0  0  0
  5  8  2  0  0  0  0
  1  2  1  0  0  0  0
  1  6  1  0  0  0  0
  3  5  1  0  0  0  0
  5  6  1  0  0  0  0
  3  4  2  0  0  0  0
  2  9  1  0  0  0  0
  2 10  1  0  0  0  0
  2 11  1  0  0  0  0
  8 12  1  0  0  0  0
  3 13  1  0  0  0  0
 13 14  1  0  0  0  0
M  END
> <OPENEYE_ISO_SMILES>
Cc1ncc(s1)C(=O)O

> <OPENEYE_INCHI>
InChI=1S/C5H5NO2S/c1-3-6-2-4(9-3)5(7)8/h2H,1H3,(H,7,8)

> <OPENEYE_INCHIKEY>
QCXCIYPOMMIBHO-UHFFFAOYSA-N

> <FORMULA>
C5H5NO2S

$$$$
