W1M
  -OEChem-02242320043D

 29 30  0     0  0  0  0  0  0999 V2000
    3.4350    0.5200    0.2890 N   0  0  0  0  0  0  0  0  0  0  0  0
    1.1160   -0.2680   -0.1980 C   0  0  0  0  0  0  0  0  0  0  0  0
   -0.8640    1.0220    0.0780 C   0  0  0  0  0  0  0  0  0  0  0  0
   -1.3960    2.2730   -0.2140 C   0  0  0  0  0  0  0  0  0  0  0  0
   -2.7620    2.4310   -0.3610 C   0  0  0  0  0  0  0  0  0  0  0  0
   -3.6060    1.3490   -0.2190 C   0  0  0  0  0  0  0  0  0  0  0  0
   -1.7030   -0.0720    0.2220 C   0  0  0  0  0  0  0  0  0  0  0  0
   -3.5240   -2.1680    0.4810 O   0  0  0  0  0  0  0  0  0  0  0  0
   -3.9830   -1.0730    0.2270 C   0  0  0  0  0  0  0  0  0  0  0  0
   -5.3130   -0.9160    0.0830 O   0  0  0  0  0  0  0  0  0  0  0  0
   -3.0810    0.0880    0.0740 C   0  0  0  0  0  0  0  0  0  0  0  0
    0.5190    0.8660    0.2200 N   0  0  0  0  0  0  0  0  0  0  0  0
    0.4430   -1.1880   -0.6210 O   0  0  0  0  0  0  0  0  0  0  0  0
    2.5860   -0.3920   -0.1430 C   0  0  0  0  0  0  0  0  0  0  0  0
    3.3520   -1.5130   -0.5420 C   0  0  0  0  0  0  0  0  0  0  0  0
    4.6410   -1.1710   -0.3100 C   0  0  0  0  0  0  0  0  0  0  0  0
    4.6380    0.0810    0.1970 N   0  0  0  0  0  0  0  0  0  0  0  0
    5.8360    0.8300    0.5870 C   0  0  0  0  0  0  0  0  0  0  0  0
   -0.7410    3.1240   -0.3250 H   0  0  0  0  0  0  0  0  0  0  0  0
   -3.1690    3.4050   -0.5870 H   0  0  0  0  0  0  0  0  0  0  0  0
   -4.6720    1.4770   -0.3340 H   0  0  0  0  0  0  0  0  0  0  0  0
   -1.2920   -1.0440    0.4480 H   0  0  0  0  0  0  0  0  0  0  0  0
   -5.8620   -1.7040    0.1920 H   0  0  0  0  0  0  0  0  0  0  0  0
    1.0480    1.5740    0.6180 H   0  0  0  0  0  0  0  0  0  0  0  0
    2.9860   -2.4450   -0.9460 H   0  0  0  0  0  0  0  0  0  0  0  0
    5.5100   -1.7850   -0.4970 H   0  0  0  0  0  0  0  0  0  0  0  0
    6.2010    1.4010   -0.2670 H   0  0  0  0  0  0  0  0  0  0  0  0
    5.5890    1.5110    1.4010 H   0  0  0  0  0  0  0  0  0  0  0  0
    6.6080    0.1340    0.9160 H   0  0  0  0  0  0  0  0  0  0  0  0
 17 18  1  0  0  0  0
 16 17  1  0  0  0  0
 15 16  2  0  0  0  0
  1 17  1  0  0  0  0
 14 15  1  0  0  0  0
  1 14  2  0  0  0  0
  2 14  1  0  0  0  0
  2 13  2  0  0  0  0
  2 12  1  0  0  0  0
  3 12  1  0  0  0  0
  3  4  2  0  0  0  0
  4  5  1  0  0  0  0
  3  7  1  0  0  0  0
  5  6  2  0  0  0  0
  7 11  2  0  0  0  0
  6 11  1  0  0  0  0
  9 11  1  0  0  0  0
  8  9  2  0  0  0  0
  9 10  1  0  0  0  0
  4 19  1  0  0  0  0
  5 20  1  0  0  0  0
  6 21  1  0  0  0  0
  7 22  1  0  0  0  0
 10 23  1  0  0  0  0
 12 24  1  0  0  0  0
 15 25  1  0  0  0  0
 16 26  1  0  0  0  0
 18 27  1  0  0  0  0
 18 28  1  0  0  0  0
 18 29  1  0  0  0  0
M  END
> <OPENEYE_ISO_SMILES>
Cn1ccc(n1)C(=O)Nc2cccc(c2)C(=O)O

> <OPENEYE_INCHI>
InChI=1S/C12H11N3O3/c1-15-6-5-10(14-15)11(16)13-9-4-2-3-8(7-9)12(17)18/h2-7H,1H3,(H,13,16)(H,17,18)

> <OPENEYE_INCHIKEY>
CGFLTCVMZJDNKM-UHFFFAOYSA-N

> <FORMULA>
C12H11N3O3

$$$$
