@<TRIPOS>MOLECULE
/home/pku/3cl/gett_pdb/6W63/6W63_mol2/ligand/6W63_X77.pdb
 66 69 0 0 0
SMALL
GASTEIGER

@<TRIPOS>ATOM
      1  C02      -19.9080   21.1240  -29.2950 C.2   401  X77401      0.2682
      2  C04      -19.6820   20.6210  -26.8490 C.3   401  X77401      0.1338
      3  C05      -19.5060   19.3750  -25.9320 C.2   401  X77401      0.2387
      4  C07      -20.5040   18.0470  -23.9770 C.3   401  X77401      0.0232
      5  C08      -21.0000   18.5900  -22.6400 C.3   401  X77401     -0.0345
      6  C09      -21.1170   17.4900  -21.5860 C.3   401  X77401     -0.0514
      7  C10      -22.0850   16.4440  -22.0550 C.3   401  X77401     -0.0529
      8  C11      -21.7630   15.8940  -23.4290 C.3   401  X77401     -0.0514
      9  C12      -21.4570   16.9570  -24.4970 C.3   401  X77401     -0.0345
     10  C14      -18.4250   21.3910  -26.5720 C.ar  401  X77401      0.0002
     11  C15      -18.4980   22.4480  -25.7360 C.ar  401  X77401     -0.0534
     12  C16      -17.3500   23.1380  -25.4380 C.ar  401  X77401     -0.0433
     13  C17      -16.1490   22.7390  -25.9930 C.ar  401  X77401      0.0276
     14  C19      -17.2310   21.0120  -27.1230 C.ar  401  X77401      0.0330
     15  C20      -20.3130   18.7420  -28.3410 C.ar  401  X77401      0.0378
     16  C21      -21.6580   18.4140  -28.1470 C.ar  401  X77401     -0.0400
     17  C22      -22.0690   17.0820  -28.2870 C.ar  401  X77401     -0.0563
     18  C23      -21.1390   16.0940  -28.6330 C.ar  401  X77401     -0.0419
     19  C24      -21.6050   14.5990  -28.7840 C.3   401  X77401     -0.0127
     20  C25      -22.2990   14.1960  -27.4790 C.3   401  X77401     -0.0560
     21  C26      -20.4440   13.6130  -29.0340 C.3   401  X77401     -0.0560
     22  C27      -22.5830   14.4770  -29.9500 C.3   401  X77401     -0.0560
     23  C28      -19.8020   16.4380  -28.8290 C.ar  401  X77401     -0.0563
     24  C29      -19.3890   17.7750  -28.6880 C.ar  401  X77401     -0.0400
     25  C30      -20.2460   20.7040  -30.7440 C.2   401  X77401      0.1317
     26  C31      -20.6560   19.4700  -31.2120 C.3   401  X77401      0.1272
     27  C33      -20.5880   20.8280  -32.8690 C.2   401  X77401      0.1120
     28  N03      -19.9140   20.1610  -28.1860 N.am  401  X77401     -0.2503
     29  N06      -20.5390   19.1480  -24.9080 N.am  401  X77401     -0.3106
     30  N18      -16.0960   21.6790  -26.8160 N.ar  401  X77401     -0.2629
     31  N32      -20.8600   19.5730  -32.5200 N.2   401  X77401     -0.2600
     32  N34      -20.2180   21.5220  -31.7750 N.2   401  X77401     -0.2333
     33  O01      -19.6350   22.2440  -29.0360 O.2   401  X77401     -0.2682
     34  O13      -18.5460   18.6540  -26.0280 O.2   401  X77401     -0.2734
     35 H041      -20.4410   21.2050  -26.6950 H     401  X77401      0.0652
     36 H071      -19.6150   17.6710  -23.8790 H     401  X77401      0.0498
     37 H081      -21.8720   18.9950  -22.7700 H     401  X77401      0.0283
     38 H082      -20.3770   19.2640  -22.3240 H     401  X77401      0.0283
     39 H091      -21.4330   17.8730  -20.7530 H     401  X77401      0.0266
     40 H092      -20.2470   17.0860  -21.4430 H     401  X77401      0.0266
     41 H101      -22.0760   15.7110  -21.4210 H     401  X77401      0.0265
     42 H102      -22.9720   16.8360  -22.0810 H     401  X77401      0.0265
     43 H112      -20.9890   15.3160  -23.3480 H     401  X77401      0.0266
     44 H111      -22.5230   15.3730  -23.7310 H     401  X77401      0.0266
     45 H121      -21.0490   16.5230  -25.2620 H     401  X77401      0.0283
     46 H122      -22.2890   17.3740  -24.7710 H     401  X77401      0.0283
     47 H151      -19.3120   22.7040  -25.3670 H     401  X77401      0.0622
     48 H161      -17.3810   23.8710  -24.8660 H     401  X77401      0.0633
     49 H171      -15.3710   23.2080  -25.7950 H     401  X77401      0.0829
     50 H191      -17.2000   20.2920  -27.7120 H     401  X77401      0.0833
     51 H211      -22.2750   19.0750  -27.9270 H     401  X77401      0.0636
     52 H221      -22.9600   16.8540  -28.1500 H     401  X77401      0.0621
     53 H251      -22.7270   13.3330  -27.5940 H     401  X77401      0.0238
     54 H252      -22.9670   14.8600  -27.2500 H     401  X77401      0.0238
     55 H253      -21.6420   14.1390  -26.7670 H     401  X77401      0.0238
     56 H261      -19.9310   13.9060  -29.8030 H     401  X77401      0.0238
     57 H263      -20.8030   12.7280  -29.2020 H     401  X77401      0.0238
     58 H262      -19.8690   13.5850  -28.2530 H     401  X77401      0.0238
     59 H272      -22.1230   14.1060  -30.7200 H     401  X77401      0.0238
     60 H273      -22.9300   15.3550  -30.1740 H     401  X77401      0.0238
     61 H271      -23.3150   13.8930  -29.6980 H     401  X77401      0.0238
     62 H281      -19.1830   15.7810  -29.0530 H     401  X77401      0.0621
     63 H291      -18.4990   18.0070  -28.8280 H     401  X77401      0.0636
     64 H311      -20.7690   18.7010  -30.7010 H     401  X77401      0.0637
     65 H331      -20.6440   21.1720  -33.7310 H     401  X77401      0.1043
     66 H061      -21.1980   19.6990  -24.8640 H     401  X77401      0.1490
@<TRIPOS>BOND
     1    65    27    1
     2    27    31    2
     3    27    32    1
     4    31    26    1
     5    32    25    2
     6    26    25    1
     7    26    64    1
     8    25     1    1
     9    59    22    1
    10    60    22    1
    11    22    61    1
    12    22    19    1
    13    56    21    1
    14     1    33    2
    15     1    28   am
    16    57    21    1
    17    62    23    1
    18    21    19    1
    19    21    58    1
    20    23    24   ar
    21    23    18   ar
    22    63    24    1
    23    19    18    1
    24    19    20    1
    25    24    15   ar
    26    18    17   ar
    27    15    28    1
    28    15    16   ar
    29    17    52    1
    30    17    16   ar
    31    28     2    1
    32    16    51    1
    33    50    14    1
    34    53    20    1
    35    20    54    1
    36    20    55    1
    37    14    30   ar
    38    14    10   ar
    39     2    35    1
    40     2    10    1
    41     2     3    1
    42    30    13   ar
    43    10    11   ar
    44    34     3    2
    45    13    49    1
    46    13    12   ar
    47     3    29   am
    48    11    12   ar
    49    11    47    1
    50    12    48    1
    51    45     9    1
    52    29    66    1
    53    29     4    1
    54    46     9    1
    55     9     4    1
    56     9     8    1
    57     4    36    1
    58     4     5    1
    59    44     8    1
    60     8    43    1
    61     8     7    1
    62    37     5    1
    63     5    38    1
    64     5     6    1
    65    42     7    1
    66     7     6    1
    67     7    41    1
    68     6    40    1
    69     6    39    1
