TYZ
  -OEChem-02242320043D

 22 22  0     0  0  0  0  0  0999 V2000
    1.0730   -0.5130   -2.3010 O   0  0  0  0  0  0  0  0  0  0  0  0
    3.0480   -1.6110   -2.0610 O   0  0  0  0  0  0  0  0  0  0  0  0
    1.9310   -1.0120   -1.5660 C   0  0  0  0  0  0  0  0  0  0  0  0
    1.8850   -1.0360   -0.1120 C   0  0  0  0  0  0  0  0  0  0  0  0
    0.8070   -0.4630    0.5610 C   0  0  0  0  0  0  0  0  0  0  0  0
    0.7640   -0.4840    1.9550 C   0  0  0  0  0  0  0  0  0  0  0  0
    1.8000   -1.0790    2.6760 C   0  0  0  0  0  0  0  0  0  0  0  0
    2.8780   -1.6520    2.0020 C   0  0  0  0  0  0  0  0  0  0  0  0
    2.9210   -1.6310    0.6080 C   0  0  0  0  0  0  0  0  0  0  0  0
    2.6950   -1.6450    4.9560 C   0  0  0  0  0  0  0  0  0  0  0  0
    1.7570   -1.0990    4.0700 N   0  0  0  0  0  0  0  0  0  0  0  0
    3.7460   -2.2120    4.6740 O   0  0  0  0  0  0  0  0  0  0  0  0
    2.2790   -1.4610    6.3940 C   0  0  0  0  0  0  0  0  0  0  0  0
    3.0890   -1.5990   -3.0420 H   0  0  0  0  0  0  0  0  0  0  0  0
   -0.0060    0.0040    0.0100 H   0  0  0  0  0  0  0  0  0  0  0  0
   -0.0820   -0.0340    2.4690 H   0  0  0  0  0  0  0  0  0  0  0  0
    3.6910   -2.1180    2.5530 H   0  0  0  0  0  0  0  0  0  0  0  0
    3.7670   -2.0800    0.0940 H   0  0  0  0  0  0  0  0  0  0  0  0
    0.9390   -0.6600    4.5080 H   0  0  0  0  0  0  0  0  0  0  0  0
    2.2180   -0.3940    6.6280 H   0  0  0  0  0  0  0  0  0  0  0  0
    3.0160   -1.9270    7.0550 H   0  0  0  0  0  0  0  0  0  0  0  0
    1.3060   -1.9300    6.5640 H   0  0  0  0  0  0  0  0  0  0  0  0
  1  3  2  0  0  0  0
  2  3  1  0  0  0  0
  2 14  1  0  0  0  0
  3  4  1  0  0  0  0
  4  5  1  0  0  0  0
  4  9  2  0  0  0  0
  5  6  2  0  0  0  0
  5 15  1  0  0  0  0
  6  7  1  0  0  0  0
  6 16  1  0  0  0  0
  7  8  2  0  0  0  0
  7 11  1  0  0  0  0
  8  9  1  0  0  0  0
  8 17  1  0  0  0  0
  9 18  1  0  0  0  0
 10 11  1  0  0  0  0
 10 12  2  0  0  0  0
 10 13  1  0  0  0  0
 11 19  1  0  0  0  0
 13 20  1  0  0  0  0
 13 21  1  0  0  0  0
 13 22  1  0  0  0  0
M  END
> <OPENEYE_ISO_SMILES>
CC(=O)Nc1ccc(cc1)C(=O)O

> <OPENEYE_INCHI>
InChI=1S/C9H9NO3/c1-6(11)10-8-4-2-7(3-5-8)9(12)13/h2-5H,1H3,(H,10,11)(H,12,13)

> <OPENEYE_INCHIKEY>
QCXJEYYXVJIFCE-UHFFFAOYSA-N

> <FORMULA>
C9H9NO3

$$$$
