0EN
  -OEChem-02242320003D

 63 65  0     1  0  0  0  0  0999 V2000
   -0.1240   -3.1530    0.1980 O   0  0  0  0  0  0  0  0  0  0  0  0
   -0.7770   -2.2080   -0.2050 C   0  0  0  0  0  0  0  0  0  0  0  0
   -2.1980   -2.3810   -0.5230 C   0  0  0  0  0  0  0  0  0  0  0  0
   -2.9360   -3.5090   -0.3090 C   0  0  0  0  0  0  0  0  0  0  0  0
   -4.2360   -3.2320   -0.7600 C   0  0  0  0  0  0  0  0  0  0  0  0
   -4.2340   -1.9630   -1.2230 C   0  0  0  0  0  0  0  0  0  0  0  0
   -3.0060   -1.4510   -1.0740 O   0  0  0  0  0  0  0  0  0  0  0  0
   -0.1960   -1.0010   -0.3520 N   0  0  0  0  0  0  0  0  0  0  0  0
    1.1740   -0.8510   -0.1160 C   0  0  0  0  0  0  0  0  0  0  0  0
    2.0400   -0.6020   -1.1730 C   0  0  0  0  0  0  0  0  0  0  0  0
    3.3930   -0.4540   -0.9350 C   0  0  0  0  0  0  0  0  0  0  0  0
    3.8850   -0.5540    0.3530 C   0  0  0  0  0  0  0  0  0  0  0  0
    5.3610   -0.3920    0.6080 C   0  0  0  0  0  0  0  0  0  0  0  0
    5.8090    0.9970    0.1470 C   0  0  0  0  0  0  0  0  0  0  0  0
    5.6400   -0.5460    2.1050 C   0  0  0  0  0  0  0  0  0  0  0  0
    6.1340   -1.4600   -0.1680 C   0  0  0  0  0  0  0  0  0  0  0  0
    3.0260   -0.8020    1.4080 C   0  0  0  0  0  0  0  0  0  0  0  0
    1.6720   -0.9460    1.1780 C   0  0  0  0  0  0  0  0  0  0  0  0
   -0.9990    0.1540   -0.7610 C   0  0  1  0  0  0  0  0  0  0  0  0
   -1.9790    0.4960    0.3320 C   0  0  0  0  0  0  0  0  0  0  0  0
   -2.8280    1.5310    0.1760 N   0  0  0  0  0  0  0  0  0  0  0  0
   -3.7800    1.8640    1.2380 C   0  0  0  0  0  0  0  0  0  0  0  0
   -3.0170    2.2010    2.5210 C   0  0  0  0  0  0  0  0  0  0  0  0
   -4.6190    3.0700    0.8120 C   0  0  0  0  0  0  0  0  0  0  0  0
   -4.7000    0.6670    1.4910 C   0  0  0  0  0  0  0  0  0  0  0  0
   -2.0040   -0.1600    1.3510 O   0  0  0  0  0  0  0  0  0  0  0  0
   -0.0930    1.3330   -1.0100 C   0  0  0  0  0  0  0  0  0  0  0  0
   -0.1380    2.0090   -2.2200 C   0  0  0  0  0  0  0  0  0  0  0  0
    0.7140    3.0870   -2.4050 C   0  0  0  0  0  0  0  0  0  0  0  0
    1.5720    3.4500   -1.3850 C   0  0  0  0  0  0  0  0  0  0  0  0
    1.5870    2.7840   -0.2470 N   0  0  0  0  0  0  0  0  0  0  0  0
    0.7870    1.7580   -0.0340 C   0  0  0  0  0  0  0  0  0  0  0  0
   -2.5880   -4.4360    0.1230 H   0  0  0  0  0  0  0  0  0  0  0  0
   -5.0800   -3.9070   -0.7400 H   0  0  0  0  0  0  0  0  0  0  0  0
   -5.0850   -1.4450   -1.6420 H   0  0  0  0  0  0  0  0  0  0  0  0
    1.6560   -0.5240   -2.1790 H   0  0  0  0  0  0  0  0  0  0  0  0
    4.0670   -0.2610   -1.7570 H   0  0  0  0  0  0  0  0  0  0  0  0
    5.2590    1.7580    0.7000 H   0  0  0  0  0  0  0  0  0  0  0  0
    6.8770    1.1140    0.3310 H   0  0  0  0  0  0  0  0  0  0  0  0
    5.6100    1.1070   -0.9190 H   0  0  0  0  0  0  0  0  0  0  0  0
    5.3210   -1.5350    2.4330 H   0  0  0  0  0  0  0  0  0  0  0  0
    6.7080   -0.4290    2.2890 H   0  0  0  0  0  0  0  0  0  0  0  0
    5.0900    0.2150    2.6570 H   0  0  0  0  0  0  0  0  0  0  0  0
    5.9350   -1.3500   -1.2340 H   0  0  0  0  0  0  0  0  0  0  0  0
    7.2020   -1.3430    0.0170 H   0  0  0  0  0  0  0  0  0  0  0  0
    5.8150   -2.4500    0.1610 H   0  0  0  0  0  0  0  0  0  0  0  0
    3.4140   -0.8790    2.4130 H   0  0  0  0  0  0  0  0  0  0  0  0
    1.0000   -1.1350    2.0030 H   0  0  0  0  0  0  0  0  0  0  0  0
   -1.5430   -0.0860   -1.6740 H   0  0  0  0  0  0  0  0  0  0  0  0
   -2.8080    2.0570   -0.6390 H   0  0  0  0  0  0  0  0  0  0  0  0
   -2.3620    3.0530    2.3400 H   0  0  0  0  0  0  0  0  0  0  0  0
   -3.7260    2.4480    3.3110 H   0  0  0  0  0  0  0  0  0  0  0  0
   -2.4200    1.3420    2.8250 H   0  0  0  0  0  0  0  0  0  0  0  0
   -5.1630    2.8300   -0.1020 H   0  0  0  0  0  0  0  0  0  0  0  0
   -5.3280    3.3170    1.6020 H   0  0  0  0  0  0  0  0  0  0  0  0
   -3.9640    3.9230    0.6310 H   0  0  0  0  0  0  0  0  0  0  0  0
   -4.1020   -0.1920    1.7950 H   0  0  0  0  0  0  0  0  0  0  0  0
   -5.4090    0.9140    2.2820 H   0  0  0  0  0  0  0  0  0  0  0  0
   -5.2430    0.4270    0.5780 H   0  0  0  0  0  0  0  0  0  0  0  0
   -0.8190    1.7020   -3.0000 H   0  0  0  0  0  0  0  0  0  0  0  0
    0.7060    3.6360   -3.3350 H   0  0  0  0  0  0  0  0  0  0  0  0
    2.2380    4.2890   -1.5210 H   0  0  0  0  0  0  0  0  0  0  0  0
    0.8240    1.2400    0.9130 H   0  0  0  0  0  0  0  0  0  0  0  0
  1  2  2  0  0  0  0
 28 29  2  0  0  0  0
 29 30  1  0  0  0  0
 27 28  1  0  0  0  0
  6  7  1  0  0  0  0
  3  7  1  0  0  0  0
  2  3  1  0  0  0  0
  2  8  1  0  0  0  0
  5  6  2  0  0  0  0
 30 31  2  0  0  0  0
 19 27  1  0  0  0  0
 27 32  2  0  0  0  0
  3  4  2  0  0  0  0
  8 19  1  0  0  0  0
 19 20  1  0  0  0  0
  8  9  1  0  0  0  0
 20 21  1  0  0  0  0
 21 22  1  0  0  0  0
  4  5  1  0  0  0  0
 22 25  1  0  0  0  0
 31 32  1  0  0  0  0
 22 24  1  0  0  0  0
 20 26  2  0  0  0  0
 22 23  1  0  0  0  0
  9 18  2  0  0  0  0
 17 18  1  0  0  0  0
  9 10  1  0  0  0  0
 12 17  2  0  0  0  0
 10 11  2  0  0  0  0
 11 12  1  0  0  0  0
 12 13  1  0  0  0  0
 13 16  1  0  0  0  0
 13 14  1  0  0  0  0
 13 15  1  0  0  0  0
  4 33  1  0  0  0  0
  5 34  1  0  0  0  0
  6 35  1  0  0  0  0
 10 36  1  0  0  0  0
 11 37  1  0  0  0  0
 14 38  1  0  0  0  0
 14 39  1  0  0  0  0
 14 40  1  0  0  0  0
 15 41  1  0  0  0  0
 15 42  1  0  0  0  0
 15 43  1  0  0  0  0
 16 44  1  0  0  0  0
 16 45  1  0  0  0  0
 16 46  1  0  0  0  0
 17 47  1  0  0  0  0
 18 48  1  0  0  0  0
 19 49  1  0  0  0  0
 21 50  1  0  0  0  0
 23 51  1  0  0  0  0
 23 52  1  0  0  0  0
 23 53  1  0  0  0  0
 24 54  1  0  0  0  0
 24 55  1  0  0  0  0
 24 56  1  0  0  0  0
 25 57  1  0  0  0  0
 25 58  1  0  0  0  0
 25 59  1  0  0  0  0
 28 60  1  0  0  0  0
 29 61  1  0  0  0  0
 30 62  1  0  0  0  0
 32 63  1  0  0  0  0
M  END
> <OPENEYE_ISO_SMILES>
CC(C)(C)c1ccc(cc1)N([C@H](c2cccnc2)C(=O)NC(C)(C)C)C(=O)c3ccco3

> <OPENEYE_INCHI>
InChI=1S/C26H31N3O3/c1-25(2,3)19-11-13-20(14-12-19)29(24(31)21-10-8-16-32-21)22(18-9-7-15-27-17-18)23(30)28-26(4,5)6/h7-17,22H,1-6H3,(H,28,30)/t22-/m1/s1

> <OPENEYE_INCHIKEY>
JXGIYKRRPGCLFV-JOCHJYFZSA-N

> <FORMULA>
C26H31N3O3

$$$$
