@<TRIPOS>MOLECULE
/home/pku/3cl/gett_pdb/5SQI/5SQI_mol2/ligand/5SQI_QRC.pdb
 45 47 0 0 0
SMALL
GASTEIGER

@<TRIPOS>ATOM
      1  C18      -43.9270  -32.5200   -0.3700 C.ar  201  QRC201      0.1204
      2  C16      -43.5660  -30.0980    0.5880 C.3   201  QRC201     -0.0140
      3  C17      -44.3350  -31.4040    0.3290 C.ar  201  QRC201     -0.0003
      4  C13      -43.6730  -29.8840    3.0900 C.2   201  QRC201      0.0472
      5  C12      -44.2930  -29.4850    1.7500 C.3   201  QRC201      0.0252
      6  C11      -45.6900  -29.9500    1.5930 C.3   201  QRC201      0.0572
      7  C20      -44.7820  -33.6050   -0.4740 C.ar  201  QRC201     -0.0199
      8  C01      -53.3950  -29.3320    9.8990 C.3   201  QRC201      0.0015
      9  C03      -51.6830  -29.1370    8.1060 C.2   201  QRC201      0.3036
     10  C05      -49.6720  -29.0090    6.5670 C.ar  201  QRC201      0.0348
     11  C06      -48.2950  -29.0900    6.5590 C.ar  201  QRC201     -0.0397
     12  C07      -47.6260  -29.1250    5.3580 C.ar  201  QRC201     -0.0479
     13  C08      -48.3620  -29.0880    4.1840 C.ar  201  QRC201      0.0368
     14  C09      -47.6640  -29.1810    2.8500 C.2   201  QRC201      0.2445
     15  C21      -46.0390  -33.5630    0.1270 C.ar  201  QRC201     -0.0580
     16  C22      -46.4480  -32.4350    0.8320 C.ar  201  QRC201     -0.0563
     17  C23      -45.5770  -31.3480    0.9510 C.ar  201  QRC201     -0.0199
     18  C25      -49.7420  -29.0590    4.1960 C.ar  201  QRC201     -0.0479
     19  C26      -50.4140  -29.0290    5.3980 C.ar  201  QRC201     -0.0397
     20  N02      -52.0150  -29.2730    9.4920 N.am  201  QRC201     -0.3022
     21  N04      -50.2670  -29.0580    7.8670 N.am  201  QRC201     -0.2695
     22  N10      -46.3640  -29.8090    2.8560 N.am  201  QRC201     -0.3039
     23  O14      -43.0330  -29.0040    3.7210 O.co2 201  QRC201     -0.5495
     24  O15      -43.8120  -31.0510    3.5580 O.co2 201  QRC201     -0.5495
     25  O19      -42.6530  -32.4860   -0.9480 O.3   201  QRC201     -0.5065
     26  O24      -48.1930  -28.8740    1.8350 O.2   201  QRC201     -0.2702
     27  O27      -52.5140  -29.0520    7.2650 O.2   201  QRC201     -0.2525
     28 H161      -42.5450  -30.3380    0.8460 H     201  QRC201      0.0321
     29 H162      -43.6390  -29.4340   -0.2560 H     201  QRC201      0.0321
     30 H121      -44.3090  -28.4380    1.6240 H     201  QRC201      0.0385
     31 H111      -46.1960  -29.3300    0.8690 H     201  QRC201      0.0555
     32 H201      -44.4780  -34.4830   -1.0190 H     201  QRC201      0.0654
     33 H011      -53.4310  -29.4700   10.9680 H     201  QRC201      0.0426
     34 H012      -53.8820  -30.1720    9.4030 H     201  QRC201      0.0426
     35 H013      -53.8810  -28.4110    9.6200 H     201  QRC201      0.0426
     36 H061      -47.7540  -29.1020    7.5010 H     201  QRC201      0.0636
     37 H071      -46.5440  -29.1590    5.3390 H     201  QRC201      0.0626
     38 H211      -46.6980  -34.4170    0.0360 H     201  QRC201      0.0619
     39 H221      -47.4310  -32.4130    1.2930 H     201  QRC201      0.0621
     40 H251      -50.2860  -29.0500    3.2620 H     201  QRC201      0.0626
     41 H261      -51.4990  -28.9960    5.4090 H     201  QRC201      0.0636
     42 H021      -51.2760  -29.3330   10.1560 H     201  QRC201      0.1499
     43 H041      -49.6610  -29.1760    8.6490 H     201  QRC201      0.1564
     44 H101      -45.9340  -30.0580    3.7240 H     201  QRC201      0.1496
     45 H191      -42.6920  -32.7920   -1.8360 H     201  QRC201      0.2921
@<TRIPOS>UNITY_ATOM_ATTR
23 1
charge -1
@<TRIPOS>BOND
     1    45    25    1
     2    32     7    1
     3    25     1    1
     4     7     1   ar
     5     7    15   ar
     6     1     3   ar
     7    29     2    1
     8    38    15    1
     9    15    16   ar
    10     3     2    1
    11     3    17   ar
    12     2    28    1
    13     2     5    1
    14    16    17   ar
    15    16    39    1
    16    31     6    1
    17    17     6    1
    18     6     5    1
    19     6    22    1
    20    30     5    1
    21     5     4    1
    22    26    14    2
    23    14    22   am
    24    14    13    1
    25    22    44    1
    26     4    24   ar
    27     4    23   ar
    28    40    18    1
    29    13    18   ar
    30    13    12   ar
    31    18    19   ar
    32    37    12    1
    33    12    11   ar
    34    19    41    1
    35    19    10   ar
    36    11    10   ar
    37    11    36    1
    38    10    21    1
    39    27     9    2
    40    21     9   am
    41    21    43    1
    42     9    20   am
    43    34     8    1
    44    20     8    1
    45    20    42    1
    46    35     8    1
    47     8    33    1
