7YW
  -OEChem-02242320013D

 86 87  0     1  0  0  0  0  0999 V2000
    8.9560   -1.5140   -1.6800 C   0  0  0  0  0  0  0  0  0  0  0  0
    0.0670    4.3350    1.7270 C   0  0  0  0  0  0  0  0  0  0  0  0
    1.1050    0.1490    1.3860 C   0  0  2  0  0  0  0  0  0  0  0  0
   -0.0740   -0.3790    0.6100 C   0  0  0  0  0  0  0  0  0  0  0  0
   -1.6270    2.7760    0.7560 C   0  0  0  0  0  0  0  0  0  0  0  0
   -2.3890   -1.1310    0.4950 C   0  0  2  0  0  0  0  0  0  0  0  0
   -3.6910   -0.6050    1.0440 C   0  0  0  0  0  0  0  0  0  0  0  0
   -0.2280    4.1950   -0.7510 C   0  0  0  0  0  0  0  0  0  0  0  0
   -6.0430   -0.0290    0.7760 C   0  0  1  0  0  0  0  0  0  0  0  0
    2.0770    2.1620    2.5010 C   0  0  0  0  0  0  0  0  0  0  0  0
   -6.9240    0.3610   -0.4120 C   0  0  0  0  0  0  0  0  0  0  0  0
    8.7320   -0.2490   -1.1650 C   0  0  0  0  0  0  0  0  0  0  0  0
   -6.2290    1.4530   -1.2270 C   0  0  2  0  0  0  0  0  0  0  0  0
   -7.1150    1.8870   -2.4180 C   0  0  0  0  0  0  0  0  0  0  0  0
   -6.5780    0.9870   -3.5530 C   0  0  0  0  0  0  0  0  0  0  0  0
   -3.5430   -4.7890    0.2160 C   0  0  0  0  0  0  0  0  0  0  0  0
   -4.9740    0.9130   -1.8750 C   0  0  0  0  0  0  0  0  0  0  0  0
   -6.7900   -1.0300    1.6590 C   0  0  0  0  0  0  0  0  0  0  0  0
    7.7120   -0.0450   -0.2530 C   0  0  0  0  0  0  0  0  0  0  0  0
    0.8810    1.6270    1.7120 C   0  0  1  0  0  0  0  0  0  0  0  0
   -2.3370   -2.6500    0.6740 C   0  0  0  0  0  0  0  0  0  0  0  0
   -3.4840   -3.2950   -0.1070 C   0  0  0  0  0  0  0  0  0  0  0  0
   -3.2500   -3.1060   -1.6070 C   0  0  0  0  0  0  0  0  0  0  0  0
    6.9170   -1.1040    0.1430 C   0  0  0  0  0  0  0  0  0  0  0  0
    7.1410   -2.3670   -0.3720 C   0  0  0  0  0  0  0  0  0  0  0  0
    8.1600   -2.5720   -1.2830 C   0  0  0  0  0  0  0  0  0  0  0  0
    5.8060   -0.8810    1.1370 C   0  0  0  0  0  0  0  0  0  0  0  0
   -0.2440    3.4000    0.5560 C   0  0  0  0  0  0  0  0  0  0  0  0
    3.4890   -0.3130    1.1770 C   0  0  0  0  0  0  0  0  0  0  0  0
    2.3220    0.0050    0.5820 N   0  0  0  0  0  0  0  0  0  0  0  0
   -1.2710   -0.5160    1.2140 N   0  0  0  0  0  0  0  0  0  0  0  0
   -4.8050   -0.6390    0.2860 N   0  0  0  0  0  0  0  0  0  0  0  0
   -5.1960    0.6660   -3.1780 N   0  0  0  0  0  0  0  0  0  0  0  0
   -3.9210    0.7290   -1.3030 O   0  0  0  0  0  0  0  0  0  0  0  0
   -7.2060   -2.1450    0.8680 O   0  0  0  0  0  0  0  0  0  0  0  0
    3.5520   -0.3910    2.3880 O   0  0  0  0  0  0  0  0  0  0  0  0
    0.7410    2.3670    0.4970 O   0  0  0  0  0  0  0  0  0  0  0  0
    0.0540   -0.6820   -0.5570 O   0  0  0  0  0  0  0  0  0  0  0  0
   -3.7350   -0.1520    2.1680 O   0  0  0  0  0  0  0  0  0  0  0  0
    4.5840   -0.5440    0.4290 O   0  0  0  0  0  0  0  0  0  0  0  0
    9.7320    1.0800   -1.6620 Cl  0  0  0  0  0  0  0  0  0  0  0  0
    9.7490   -1.6730   -2.3950 H   0  0  0  0  0  0  0  0  0  0  0  0
   -0.0490    3.7930    2.6650 H   0  0  0  0  0  0  0  0  0  0  0  0
    1.0910    4.6970    1.6400 H   0  0  0  0  0  0  0  0  0  0  0  0
   -0.6200    5.1810    1.7080 H   0  0  0  0  0  0  0  0  0  0  0  0
    1.2130   -0.4150    2.3120 H   0  0  0  0  0  0  0  0  0  0  0  0
   -2.3880    3.5530    0.6980 H   0  0  0  0  0  0  0  0  0  0  0  0
   -1.8060    2.0320   -0.0210 H   0  0  0  0  0  0  0  0  0  0  0  0
   -1.6710    2.2960    1.7340 H   0  0  0  0  0  0  0  0  0  0  0  0
   -2.3170   -0.8870   -0.5650 H   0  0  0  0  0  0  0  0  0  0  0  0
    0.7570    4.6400   -0.8930 H   0  0  0  0  0  0  0  0  0  0  0  0
   -0.4500    3.5290   -1.5840 H   0  0  0  0  0  0  0  0  0  0  0  0
   -0.9800    4.9840   -0.7060 H   0  0  0  0  0  0  0  0  0  0  0  0
   -5.8040    0.8610    1.3580 H   0  0  0  0  0  0  0  0  0  0  0  0
    2.9630    2.1570    1.8650 H   0  0  0  0  0  0  0  0  0  0  0  0
    1.8710    3.1810    2.8270 H   0  0  0  0  0  0  0  0  0  0  0  0
    2.2510    1.5300    3.3710 H   0  0  0  0  0  0  0  0  0  0  0  0
   -7.0900   -0.5130   -1.0430 H   0  0  0  0  0  0  0  0  0  0  0  0
   -7.8820    0.7330   -0.0480 H   0  0  0  0  0  0  0  0  0  0  0  0
   -5.9940    2.3080   -0.5930 H   0  0  0  0  0  0  0  0  0  0  0  0
   -8.1660    1.6780   -2.2190 H   0  0  0  0  0  0  0  0  0  0  0  0
   -6.9660    2.9410   -2.6520 H   0  0  0  0  0  0  0  0  0  0  0  0
   -7.1710    0.0760   -3.6250 H   0  0  0  0  0  0  0  0  0  0  0  0
   -6.5960    1.5250   -4.5010 H   0  0  0  0  0  0  0  0  0  0  0  0
   -3.7090   -4.9240    1.2850 H   0  0  0  0  0  0  0  0  0  0  0  0
   -4.3600   -5.2490   -0.3400 H   0  0  0  0  0  0  0  0  0  0  0  0
   -2.6010   -5.2600   -0.0670 H   0  0  0  0  0  0  0  0  0  0  0  0
   -6.1310   -1.3750    2.4550 H   0  0  0  0  0  0  0  0  0  0  0  0
   -7.6650   -0.5480    2.0950 H   0  0  0  0  0  0  0  0  0  0  0  0
    7.5380    0.9420    0.1500 H   0  0  0  0  0  0  0  0  0  0  0  0
   -0.0250    1.7340    2.3090 H   0  0  0  0  0  0  0  0  0  0  0  0
   -1.3850   -3.0270    0.2990 H   0  0  0  0  0  0  0  0  0  0  0  0
   -2.4340   -2.8940    1.7310 H   0  0  0  0  0  0  0  0  0  0  0  0
   -4.4250   -2.8250    0.1760 H   0  0  0  0  0  0  0  0  0  0  0  0
   -4.0110   -3.6510   -2.1650 H   0  0  0  0  0  0  0  0  0  0  0  0
   -3.3070   -2.0460   -1.8530 H   0  0  0  0  0  0  0  0  0  0  0  0
   -2.2630   -3.4870   -1.8720 H   0  0  0  0  0  0  0  0  0  0  0  0
    6.5190   -3.1940   -0.0620 H   0  0  0  0  0  0  0  0  0  0  0  0
    8.3350   -3.5590   -1.6850 H   0  0  0  0  0  0  0  0  0  0  0  0
    5.6500   -1.7910    1.7170 H   0  0  0  0  0  0  0  0  0  0  0  0
    6.0760   -0.0640    1.8060 H   0  0  0  0  0  0  0  0  0  0  0  0
    2.2870    0.1390   -0.3780 H   0  0  0  0  0  0  0  0  0  0  0  0
   -1.3930   -0.2060    2.1260 H   0  0  0  0  0  0  0  0  0  0  0  0
   -4.7860   -1.0680   -0.5840 H   0  0  0  0  0  0  0  0  0  0  0  0
   -4.5290    0.3200   -3.7910 H   0  0  0  0  0  0  0  0  0  0  0  0
   -7.6870   -2.8220    1.3640 H   0  0  0  0  0  0  0  0  0  0  0  0
  1 26  2  0  0  0  0
  1 12  1  0  0  0  0
 25 26  1  0  0  0  0
 12 41  1  0  0  0  0
  2 28  1  0  0  0  0
 12 19  2  0  0  0  0
 24 25  2  0  0  0  0
 28 37  1  0  0  0  0
 20 37  1  0  0  0  0
  5 28  1  0  0  0  0
  8 28  1  0  0  0  0
 19 24  1  0  0  0  0
 10 20  1  0  0  0  0
 24 27  1  0  0  0  0
 16 22  1  0  0  0  0
  7 39  2  0  0  0  0
  3 20  1  0  0  0  0
 29 36  2  0  0  0  0
 21 22  1  0  0  0  0
  6 21  1  0  0  0  0
  3  4  1  0  0  0  0
  3 30  1  0  0  0  0
  4 31  1  0  0  0  0
  6 31  1  0  0  0  0
 22 23  1  0  0  0  0
 29 30  1  0  0  0  0
 29 40  1  0  0  0  0
 27 40  1  0  0  0  0
  4 38  2  0  0  0  0
  6  7  1  0  0  0  0
  7 32  1  0  0  0  0
 14 15  1  0  0  0  0
 13 14  1  0  0  0  0
 15 33  1  0  0  0  0
  9 32  1  0  0  0  0
  9 18  1  0  0  0  0
  9 11  1  0  0  0  0
 18 35  1  0  0  0  0
 11 13  1  0  0  0  0
 13 17  1  0  0  0  0
 17 33  1  0  0  0  0
 17 34  2  0  0  0  0
  1 42  1  0  0  0  0
  2 43  1  0  0  0  0
  2 44  1  0  0  0  0
  2 45  1  0  0  0  0
  3 46  1  0  0  0  0
  5 47  1  0  0  0  0
  5 48  1  0  0  0  0
  5 49  1  0  0  0  0
  6 50  1  0  0  0  0
  8 51  1  0  0  0  0
  8 52  1  0  0  0  0
  8 53  1  0  0  0  0
  9 54  1  0  0  0  0
 10 55  1  0  0  0  0
 10 56  1  0  0  0  0
 10 57  1  0  0  0  0
 11 58  1  0  0  0  0
 11 59  1  0  0  0  0
 13 60  1  0  0  0  0
 14 61  1  0  0  0  0
 14 62  1  0  0  0  0
 15 63  1  0  0  0  0
 15 64  1  0  0  0  0
 16 65  1  0  0  0  0
 16 66  1  0  0  0  0
 16 67  1  0  0  0  0
 18 68  1  0  0  0  0
 18 69  1  0  0  0  0
 19 70  1  0  0  0  0
 20 71  1  0  0  0  0
 21 72  1  0  0  0  0
 21 73  1  0  0  0  0
 22 74  1  0  0  0  0
 23 75  1  0  0  0  0
 23 76  1  0  0  0  0
 23 77  1  0  0  0  0
 25 78  1  0  0  0  0
 26 79  1  0  0  0  0
 27 80  1  0  0  0  0
 27 81  1  0  0  0  0
 30 82  1  0  0  0  0
 31 83  1  0  0  0  0
 32 84  1  0  0  0  0
 33 85  1  0  0  0  0
 35 86  1  0  0  0  0
M  END
> <OPENEYE_ISO_SMILES>
C[C@H]([C@@H](C(=O)N[C@@H](CC(C)C)C(=O)N[C@@H](C[C@@H]1CCNC1=O)CO)NC(=O)OCc2cccc(c2)Cl)OC(C)(C)C

> <OPENEYE_INCHI>
InChI=1S/C29H45ClN4O7/c1-17(2)12-23(26(37)32-22(15-35)14-20-10-11-31-25(20)36)33-27(38)24(18(3)41-29(4,5)6)34-28(39)40-16-19-8-7-9-21(30)13-19/h7-9,13,17-18,20,22-24,35H,10-12,14-16H2,1-6H3,(H,31,36)(H,32,37)(H,33,38)(H,34,39)/t18-,20+,22+,23+,24+/m1/s1

> <OPENEYE_INCHIKEY>
NCUGWYVGOAXURU-PQSFEVJCSA-N

> <FORMULA>
C29H45ClN4O7

$$$$
