DFA
  -OEChem-02242320023D

 28 29  0     0  0  0  0  0  0999 V2000
    2.0440    0.0880    0.0440 C   0  0  0  0  0  0  0  0  0  0  0  0
    2.3770   -0.6350   -0.8630 O   0  0  0  0  0  0  0  0  0  0  0  0
   -1.2060    0.9760   -3.2350 C   0  0  0  0  0  0  0  0  0  0  0  0
   -0.5350    1.3380   -2.0830 C   0  0  0  0  0  0  0  0  0  0  0  0
   -0.0360    0.3640   -1.2380 C   0  0  0  0  0  0  0  0  0  0  0  0
   -0.2050   -0.9720   -1.5490 C   0  0  0  0  0  0  0  0  0  0  0  0
   -0.8810   -1.3340   -2.7000 C   0  0  0  0  0  0  0  0  0  0  0  0
   -1.3800   -0.3590   -3.5440 C   0  0  0  0  0  0  0  0  0  0  0  0
   -0.1030    0.3270    1.2210 C   0  0  0  0  0  0  0  0  0  0  0  0
   -0.6910    1.2760    2.0360 C   0  0  0  0  0  0  0  0  0  0  0  0
   -1.4240    0.8800    3.1390 C   0  0  0  0  0  0  0  0  0  0  0  0
   -1.5680   -0.4630    3.4280 C   0  0  0  0  0  0  0  0  0  0  0  0
   -0.9800   -1.4120    2.6120 C   0  0  0  0  0  0  0  0  0  0  0  0
   -0.2510   -1.0170    1.5060 C   0  0  0  0  0  0  0  0  0  0  0  0
    0.6950    0.7580    0.0180 C   0  0  0  0  0  0  0  0  0  0  0  0
    2.8770    0.2950    1.0770 O   0  0  0  0  0  0  0  0  0  0  0  0
   -1.5960    1.7380   -3.8950 H   0  0  0  0  0  0  0  0  0  0  0  0
   -0.3990    2.3820   -1.8410 H   0  0  0  0  0  0  0  0  0  0  0  0
    0.1840   -1.7330   -0.8900 H   0  0  0  0  0  0  0  0  0  0  0  0
   -1.0160   -2.3780   -2.9410 H   0  0  0  0  0  0  0  0  0  0  0  0
   -1.9050   -0.6420   -4.4440 H   0  0  0  0  0  0  0  0  0  0  0  0
   -0.5790    2.3260    1.8100 H   0  0  0  0  0  0  0  0  0  0  0  0
   -1.8830    1.6220    3.7760 H   0  0  0  0  0  0  0  0  0  0  0  0
   -2.1400   -0.7720    4.2900 H   0  0  0  0  0  0  0  0  0  0  0  0
   -1.0930   -2.4620    2.8380 H   0  0  0  0  0  0  0  0  0  0  0  0
    0.2070   -1.7580    0.8690 H   0  0  0  0  0  0  0  0  0  0  0  0
    0.8260    1.8400    0.0370 H   0  0  0  0  0  0  0  0  0  0  0  0
    3.7420   -0.1350    1.0940 H   0  0  0  0  0  0  0  0  0  0  0  0
  1  2  2  0  0  0  0
  1 15  1  0  0  0  0
  1 16  1  0  0  0  0
  3  4  2  0  0  0  0
  3  8  1  0  0  0  0
  3 17  1  0  0  0  0
  4  5  1  0  0  0  0
  4 18  1  0  0  0  0
  5  6  2  0  0  0  0
  5 15  1  0  0  0  0
  6  7  1  0  0  0  0
  6 19  1  0  0  0  0
  7  8  2  0  0  0  0
  7 20  1  0  0  0  0
  8 21  1  0  0  0  0
  9 10  2  0  0  0  0
  9 14  1  0  0  0  0
  9 15  1  0  0  0  0
 10 11  1  0  0  0  0
 10 22  1  0  0  0  0
 11 12  2  0  0  0  0
 11 23  1  0  0  0  0
 12 13  1  0  0  0  0
 12 24  1  0  0  0  0
 13 14  2  0  0  0  0
 13 25  1  0  0  0  0
 14 26  1  0  0  0  0
 15 27  1  0  0  0  0
 16 28  1  0  0  0  0
M  END
> <OPENEYE_ISO_SMILES>
c1ccc(cc1)C(c2ccccc2)C(=O)O

> <OPENEYE_INCHI>
InChI=1S/C14H12O2/c15-14(16)13(11-7-3-1-4-8-11)12-9-5-2-6-10-12/h1-10,13H,(H,15,16)

> <OPENEYE_INCHIKEY>
PYHXGXCGESYPCW-UHFFFAOYSA-N

> <FORMULA>
C14H12O2

$$$$
