@<TRIPOS>MOLECULE
/home/pku/3cl/gett_pdb/8CZU/8CZU_mol2/ligand/8CZU_P9R.pdb
 33 35 0 0 0
SMALL
GASTEIGER

@<TRIPOS>ATOM
      1  C14      -20.3360   23.8070    7.6590 C.2   401  P9R401      0.2453
      2  C16      -22.6530   23.5530    8.0400 C.2   401  P9R401      0.0627
      3  C17      -22.4770   24.5590    6.8870 C.3   401  P9R401      0.0534
      4  C19      -20.6900   28.4280    5.7390 C.3   401  P9R401      0.2036
      5  C13      -20.9690   24.6260    6.5620 C.3   401  P9R401      0.0861
      6  C12      -20.3680   26.0220    6.4640 C.3   401  P9R401      0.0339
      7  C11      -21.0410   26.9390    5.4170 C.3   401  P9R401      0.1287
      8  C02      -21.2610   23.5240    2.3700 C.2   401  P9R401      0.4215
      9  C04      -20.7990   25.8180    1.6650 C.3   401  P9R401      0.1761
     10  C05      -21.3860   26.7380    0.5580 C.3   401  P9R401      0.0312
     11  C06      -20.9660   26.3300   -0.8750 C.3   401  P9R401      0.0022
     12  C07      -19.4740   25.9750   -0.9750 C.3   401  P9R401      0.0001
     13  C08      -21.2340   27.4340   -1.9000 C.3   401  P9R401      0.0001
     14  C09      -21.4110   26.1400    3.0380 C.2   401  P9R401      0.2614
     15  C23      -22.4550   21.6050    3.0850 C.3   401  P9R401      0.2100
     16  C24      -21.9370   20.3650    2.4370 C.3   401  P9R401      0.0439
     17  C25      -22.9640   19.2480    2.1650 C.3   401  P9R401      0.0037
     18  C26      -23.0770   18.7410    0.7530 C.3   401  P9R401      0.0001
     19  C27      -23.0900   17.2250    0.5610 C.3   401  P9R401      0.0000
     20  C28      -24.0680   16.7390   -0.5180 C.3   401  P9R401      0.0000
     21  C29      -23.8750   15.2980   -0.9550 C.3   401  P9R401      0.0000
     22  C30      -22.4420   15.0330   -1.3400 C.3   401  P9R401      0.0000
     23  C31      -21.5320   15.3330   -0.1780 C.3   401  P9R401      0.0000
     24  C32      -21.6490   16.7770    0.2320 C.3   401  P9R401      0.0000
     25  C33      -21.7700   19.0030    3.0750 C.3   401  P9R401      0.0038
     26  N03      -21.1830   24.4360    1.3390 N.am  401  P9R401     -0.1611
     27  N10      -20.6030   26.6040    4.0600 N.am  401  P9R401     -0.2030
     28  N15      -21.3040   23.2220    8.4620 N.am  401  P9R401     -0.1826
     29  O01      -20.5020   23.4230    3.3060 O.2   401  P9R401     -0.2246
     30  O18      -19.1330   23.6350    7.8700 O.2   401  P9R401     -0.2730
     31  O20      -21.6240   29.2090    5.0620 O.3   401  P9R401     -0.2185
     32  O21      -22.6360   25.9540    3.2230 O.2   401  P9R401     -0.2715
     33  O22      -22.3490   22.7320    2.2170 O.3   401  P9R401     -0.4335
@<TRIPOS>BOND
     1    13    11    1
     2    22    21    1
     3    22    23    1
     4    12    11    1
     5    21    20    1
     6    11    10    1
     7    20    19    1
     8    23    24    1
     9    24    19    1
    10    10     9    1
    11    19    18    1
    12    18    17    1
    13    26     9    1
    14    26     8   am
    15     9    14    1
    16    17    16    1
    17    17    25    1
    18    33     8    1
    19    33    15    1
    20     8    29    2
    21    16    25    1
    22    16    15    1
    23    14    32    2
    24    14    27   am
    25    27     7    1
    26    31     4    1
    27     7     4    1
    28     7     6    1
    29     6     5    1
    30     5     3    1
    31     5     1    1
    32     3     2    1
    33     1    30    2
    34     1    28    1
    35     2    28    2
