@<TRIPOS>MOLECULE
/home/pku/3cl/gett_pdb/5RT3/5RT3_mol2/ligand/5RT3_2FX.pdb
 20 21 0 0 0
SMALL
GASTEIGER

@<TRIPOS>ATOM
      1  O1       -43.3180  -31.3510    3.3940 O.co2 201  2FX201     -0.5495
      2  C2       -43.5540  -31.8370    2.4060 C.2   201  2FX201      0.0465
      3  O3       -44.0650  -32.9560    2.4020 O.co2 201  2FX201     -0.5495
      4  C4       -43.8120  -30.0820    0.6990 C.ar  201  2FX201     -0.0036
      5  C5       -43.1740  -28.8550    0.5520 C.ar  201  2FX201     -0.0434
      6  C6       -44.2160  -27.8770    0.2710 C.ar  201  2FX201     -0.0105
      7  C7       -43.9540  -26.5350    0.0150 C.ar  201  2FX201     -0.0535
      8  C8       -45.0310  -25.7360   -0.2490 C.ar  201  2FX201     -0.0611
      9  C9       -46.2890  -26.2770   -0.3510 C.ar  201  2FX201     -0.0607
     10  C10      -46.5850  -27.5740   -0.0610 C.ar  201  2FX201     -0.0474
     11  C11      -45.5300  -28.3600    0.1910 C.ar  201  2FX201      0.0196
     12  S12      -45.4960  -30.0200    0.5360 S.2   201  2FX201     -0.0928
     13  C13      -43.2040  -31.3760    1.0370 C.3   201  2FX201      0.0183
     14  H5       -42.2620  -28.6900    0.6270 H     201  2FX201      0.0632
     15  H7       -43.0900  -26.1930    0.0450 H     201  2FX201      0.0624
     16  H8       -44.9020  -24.8320   -0.4260 H     201  2FX201      0.0618
     17  H9       -46.9990  -25.6940   -0.4980 H     201  2FX201      0.0618
     18  H10      -47.4510  -27.9090   -0.1170 H     201  2FX201      0.0629
     19  H13      -42.2400  -31.2950    0.9720 H     201  2FX201      0.0378
     20 H13A      -43.5060  -32.0400    0.3970 H     201  2FX201      0.0378
@<TRIPOS>UNITY_ATOM_ATTR
1 1
charge -1
@<TRIPOS>BOND
     1    17     9    1
     2    16     8    1
     3     9     8   ar
     4     9    10   ar
     5     8     7   ar
     6    18    10    1
     7    10    11   ar
     8     7    15    1
     9     7     6   ar
    10    11     6   ar
    11    11    12   ar
    12     6     5   ar
    13    20    13    1
    14    12     4   ar
    15     5    14    1
    16     5     4   ar
    17     4    13    1
    18    19    13    1
    19    13     2    1
    20     3     2   ar
    21     2     1   ar
