@<TRIPOS>MOLECULE
/home/pku/3cl/gett_pdb/7DNC/7DNC_mol2/ligand/7DNC_FHR.pdb
 33 36 0 0 0
SMALL
GASTEIGER

@<TRIPOS>ATOM
      1  C02      -12.9630   22.0130  -12.7750 C.2   201  FHR201      0.2829
      2  C07       -8.1660   21.8280  -16.4180 C.ar  201  FHR201      0.0001
      3  C08       -7.6400   21.1640  -15.3130 C.ar  201  FHR201      0.0015
      4  C09       -8.3870   20.9670  -14.1740 C.ar  201  FHR201      0.0191
      5  C10       -9.6940   21.4460  -14.1720 C.ar  201  FHR201      0.0815
      6  C05      -10.2570   22.1140  -15.2850 C.ar  201  FHR201      0.0193
      7  C06       -9.4570   22.2980  -16.4270 C.ar  201  FHR201      0.0015
      8  C04      -11.5900   22.4490  -14.9360 C.ar  201  FHR201      0.0253
      9  C03      -11.7960   21.9890  -13.6590 C.ar  201  FHR201      0.1361
     10  N11      -10.6520   21.3830  -13.1960 N.ar  201  FHR201     -0.2407
     11  O01      -12.8920   21.6360  -11.6000 O.2   201  FHR201     -0.2667
     12  N12      -14.1310   22.3980  -13.3240 N.am  201  FHR201     -0.1924
     13  C13      -15.3590   22.2810  -12.5700 C.3   201  FHR201      0.1774
     14  C21      -15.6490   20.8110  -12.2980 C.2   201  FHR201      0.2619
     15  O33      -15.4320   19.9620  -13.1590 O.2   201  FHR201     -0.2715
     16  C14      -16.5260   22.9340  -13.3150 C.3   201  FHR201      0.0574
     17  C15      -16.3960   24.4330  -13.4090 C.ar  201  FHR201     -0.0200
     18  C20      -16.2640   25.0570  -14.6390 C.ar  201  FHR201     -0.0042
     19  C19      -16.1470   26.4360  -14.7270 C.ar  201  FHR201     -0.0003
     20  C18      -16.1700   27.2080  -13.5920 C.ar  201  FHR201     -0.0000
     21  C17      -16.3030   26.6040  -12.3640 C.ar  201  FHR201     -0.0003
     22  C16      -16.4200   25.2260  -12.2750 C.ar  201  FHR201     -0.0042
     23  O30      -13.2160   18.5110   -7.6570 O.2   201  FHR201     -0.2734
     24  C29      -13.0700   18.2300   -8.8590 C.2   201  FHR201      0.2410
     25  N28      -12.0830   17.5020   -9.3770 N.am  201  FHR201     -0.2054
     26  C27      -12.1480   17.4010  -10.8330 C.3   201  FHR201      0.1156
     27  C26      -13.6100   17.7190  -11.1130 C.3   201  FHR201      0.0326
     28  C25      -13.9940   18.6640   -9.9800 C.3   201  FHR201      0.0821
     29  C24      -15.4680   18.7140   -9.5490 C.3   201  FHR201      0.0389
     30  C23      -16.4310   19.1770  -10.6440 C.3   201  FHR201      0.1601
     31  N22      -16.1460   20.5300  -11.0910 N.am  201  FHR201     -0.1977
     32  C31      -17.9150   19.0990  -10.2330 C.2   201  FHR201      0.2287
     33  O32      -18.7430   19.1290  -11.1650 O.2   201  FHR201     -0.2864
@<TRIPOS>BOND
     1     7     2   ar
     2     7     6   ar
     3     2     3   ar
     4     3     4   ar
     5     6     8   ar
     6     6     5   ar
     7     8     9   ar
     8    19    18   ar
     9    19    20   ar
    10    18    17   ar
    11     4     5   ar
    12     5    10   ar
    13     9    10   ar
    14     9     1    1
    15    20    21   ar
    16    17    16    1
    17    17    22   ar
    18    12     1   am
    19    12    13    1
    20    16    13    1
    21    15    14    2
    22     1    11    2
    23    13    14    1
    24    21    22   ar
    25    14    31   am
    26    33    32    2
    27    27    26    1
    28    27    28    1
    29    31    30    1
    30    26    25    1
    31    30    32    1
    32    30    29    1
    33    28    29    1
    34    28    24    1
    35    25    24   am
    36    24    23    2
