@<TRIPOS>MOLECULE
/home/pku/3cl/gett_pdb/5SRU/5SRU_mol2/ligand/5SRU_RGF.pdb
 41 45 0 0 0
SMALL
GASTEIGER

@<TRIPOS>ATOM
      1  C18      -44.2650  -29.3080    6.1110 C.ar  201  RGF201      0.1204
      2  C16      -46.5020  -29.2200    6.1860 C.ar  201  RGF201      0.1442
      3  C13      -48.9830  -28.9120    3.4840 C.ar  201  RGF201     -0.0491
      4  C12      -50.3530  -28.8670    3.6580 C.ar  201  RGF201     -0.0257
      5  C11      -50.8950  -28.9470    4.9410 C.ar  201  RGF201      0.1254
      6  C10      -50.0880  -29.0680    6.0590 C.ar  201  RGF201     -0.0025
      7  C20      -43.9070  -28.4800    2.0250 C.3   201  RGF201      0.0198
      8  C02      -46.4690  -27.5480   -0.5520 C.2   201  RGF201      0.0469
      9  C03      -45.6250  -28.4090    0.4140 C.3   201  RGF201      0.0213
     10  C04      -46.3020  -28.5940    1.7780 C.3   201  RGF201      0.0220
     11  C06      -45.3960  -29.0940    4.0630 C.ar  201  RGF201      0.1344
     12  C07      -46.6570  -29.1110    4.7640 C.ar  201  RGF201      0.0663
     13  C08      -48.1080  -29.0280    4.5660 C.ar  201  RGF201      0.0124
     14  C09      -48.7180  -29.0950    5.8500 C.ar  201  RGF201      0.0515
     15  C21      -44.3330  -27.7280    0.7800 C.3   201  RGF201     -0.0042
     16  C22      -43.1760  -27.5690   -0.2710 C.3   201  RGF201     -0.0453
     17  C23      -42.9200  -26.1350    0.2800 C.3   201  RGF201     -0.0519
     18  C24      -44.3490  -26.1580    0.8510 C.3   201  RGF201     -0.0453
     19  F14      -52.1910  -28.9140    5.0990 F     201  RGF201     -0.2054
     20  N05      -45.1590  -29.0390    2.6330 N.pl3 201  RGF201     -0.3134
     21  N15      -47.7420  -29.2190    6.8250 N.ar  201  RGF201     -0.3389
     22  N17      -45.3560  -29.3260    6.8810 N.ar  201  RGF201     -0.2178
     23  N19      -44.2240  -29.2060    4.7720 N.ar  201  RGF201     -0.2200
     24  O01      -47.3500  -26.7670   -0.0810 O.co2 201  RGF201     -0.5495
     25  O25      -46.2040  -27.6430   -1.7850 O.co2 201  RGF201     -0.5495
     26 H181      -43.2970  -29.3850    6.6210 H     201  RGF201      0.1048
     27 H131      -48.6190  -28.8590    2.4940 H     201  RGF201      0.0625
     28 H121      -51.0520  -28.7860    2.8170 H     201  RGF201      0.0646
     29 H101      -50.5920  -29.1170    7.0030 H     201  RGF201      0.0667
     30 H202      -43.4160  -27.8060    2.7540 H     201  RGF201      0.0470
     31 H201      -43.1520  -29.2500    1.7460 H     201  RGF201      0.0470
     32 H031      -45.4290  -29.4190   -0.0530 H     201  RGF201      0.0382
     33 H041      -47.1120  -29.3280    1.7490 H     201  RGF201      0.0471
     34 H042      -46.7640  -27.6680    2.2240 H     201  RGF201      0.0471
     35 H222      -42.3520  -28.2650   -0.2190 H     201  RGF201      0.0271
     36 H221      -43.5260  -27.5680   -1.3250 H     201  RGF201      0.0271
     37 H232      -42.6980  -25.3400   -0.4330 H     201  RGF201      0.0266
     38 H231      -42.1230  -26.0660    1.0330 H     201  RGF201      0.0266
     39 H241      -45.0770  -25.6280    0.2310 H     201  RGF201      0.0271
     40 H242      -44.4320  -25.7340    1.8510 H     201  RGF201      0.0271
     41 H151      -47.9090  -29.2860    7.8100 H     201  RGF201      0.1673
@<TRIPOS>UNITY_ATOM_ATTR
24 1
charge -1
@<TRIPOS>BOND
     1    25     8   ar
     2    36    16    1
     3     8    24   ar
     4     8     9    1
     5    37    17    1
     6    16    35    1
     7    16    17    1
     8    16    15    1
     9    32     9    1
    10    39    18    1
    11    17    18    1
    12    17    38    1
    13     9    15    1
    14     9    10    1
    15    15    18    1
    16    15     7    1
    17    18    40    1
    18    31     7    1
    19    33    10    1
    20    10    34    1
    21    10    20    1
    22     7    20    1
    23     7    30    1
    24    27     3    1
    25    20    11    1
    26    28     4    1
    27     3     4   ar
    28     3    13   ar
    29     4     5   ar
    30    11    12   ar
    31    11    23   ar
    32    13    12   ar
    33    13    14   ar
    34    12     2   ar
    35    23     1   ar
    36     5    19    1
    37     5     6   ar
    38    14     6   ar
    39    14    21   ar
    40     6    29    1
    41     1    26    1
    42     1    22   ar
    43     2    21   ar
    44     2    22   ar
    45    21    41    1
