@<TRIPOS>MOLECULE
/home/pku/3cl/gett_pdb/7QKD/7QKD_mol2/ligand/7QKD_ALD.pdb
 76 76 0 0 0
SMALL
GASTEIGER

@<TRIPOS>ATOM
      1  C9        16.6330  -28.8110    1.3530 C.2   301  ALD301      0.4012
      2  O31       16.5200  -29.6330    2.2370 O.2   301  ALD301     -0.2265
      3  O8        17.8120  -28.4210    0.8160 O.3   301  ALD301     -0.4456
      4  C7        18.9880  -29.0940    1.3410 C.3   301  ALD301      0.1191
      5  C3        20.1090  -28.1660    1.7260 C.ar  301  ALD301     -0.0103
      6  C4        21.4160  -28.4870    1.3800 C.ar  301  ALD301     -0.0554
      7  C5        22.4710  -27.6870    1.7870 C.ar  301  ALD301     -0.0614
      8  C6        22.2370  -26.5560    2.5390 C.ar  301  ALD301     -0.0617
      9  C1        20.9440  -26.2220    2.8820 C.ar  301  ALD301     -0.0614
     10  C2        19.8850  -27.0190    2.4770 C.ar  301  ALD301     -0.0554
     11  N10       15.6010  -28.1660    0.7760 N.am  301  ALD301     -0.2698
     12  C11       15.7690  -27.2250   -0.3170 C.3   301  ALD301      0.1027
     13  C12       15.6170  -25.7920    0.1900 C.2   301  ALD301      0.2341
     14  O32       15.0300  -25.5600    1.2430 O.2   301  ALD301     -0.2738
     15  C30       14.7240  -27.4930   -1.4060 C.3   301  ALD301     -0.0235
     16  C31       14.7620  -28.8880   -2.0270 C.3   301  ALD301     -0.0446
     17  C32       13.4510  -29.1870   -2.7290 C.3   301  ALD301     -0.0626
     18  C33       15.9350  -29.0360   -2.9830 C.3   301  ALD301     -0.0626
     19  N13       16.1440  -24.8360   -0.5810 N.am  301  ALD301     -0.3025
     20  C14       16.1060  -23.4330   -0.2050 C.3   301  ALD301      0.0996
     21  C15       15.0450  -22.6970   -1.0200 C.2   301  ALD301      0.2337
     22  O34       14.7220  -23.1050   -2.1310 O.2   301  ALD301     -0.2738
     23  C24       17.4730  -22.7910   -0.4450 C.3   301  ALD301     -0.0236
     24  C25       18.6470  -23.5580    0.1520 C.3   301  ALD301     -0.0446
     25  C26       19.9540  -23.1000   -0.4570 C.3   301  ALD301     -0.0626
     26  C27       18.6620  -23.4010    1.6640 C.3   301  ALD301     -0.0626
     27  N16       14.5230  -21.5990   -0.4640 N.am  301  ALD301     -0.3084
     28  C17       13.5300  -20.7640   -1.1340 C.3   301  ALD301      0.0518
     29  C22       13.9900  -19.3180   -1.2070 C.3   301  ALD301      0.1010
     30  C18       12.1870  -20.8780   -0.4170 C.3   301  ALD301     -0.0297
     31  C19       11.3990  -22.1420   -0.7400 C.3   301  ALD301     -0.0450
     32  C20       11.9590  -23.3360    0.0080 C.3   301  ALD301     -0.0626
     33  C21        9.9150  -21.9360   -0.4500 C.3   301  ALD301     -0.0626
     34  O33       13.2430  -18.5750   -2.1600 O.3   301  ALD301     -0.3873
     35  H71       19.3240  -29.8020    0.5850 H     301  ALD301      0.0749
     36  H72       18.6700  -29.6820    2.2010 H     301  ALD301      0.0749
     37  H4        21.6160  -29.3750    0.7820 H     301  ALD301      0.0621
     38  H5        23.4890  -27.9590    1.5090 H     301  ALD301      0.0618
     39  H6        23.0680  -25.9310    2.8600 H     301  ALD301      0.0618
     40  H1        20.7500  -25.3280    3.4730 H     301  ALD301      0.0618
     41  H2        18.8680  -26.7410    2.7530 H     301  ALD301      0.0621
     42  HNA       14.6500  -28.3220    1.0960 H     301  ALD301      0.1528
     43  H11       16.7590  -27.3830   -0.7400 H     301  ALD301      0.0596
     44 H301       14.8360  -26.7510   -2.1950 H     301  ALD301      0.0290
     45 H302       13.7310  -27.3150   -0.9970 H     301  ALD301      0.0290
     46  H31       14.9060  -29.6210   -1.2350 H     301  ALD301      0.0296
     47 H321       13.5690  -29.9570   -3.4890 H     301  ALD301      0.0232
     48 H322       13.0510  -28.3030   -3.2240 H     301  ALD301      0.0232
     49 H323       12.6920  -29.5360   -2.0300 H     301  ALD301      0.0232
     50 H331       16.3830  -28.0770   -3.2390 H     301  ALD301      0.0232
     51 H332       15.6460  -29.5030   -3.9230 H     301  ALD301      0.0232
     52 H333       16.7330  -29.6490   -2.5660 H     301  ALD301      0.0232
     53  HND       16.5950  -25.0480   -1.4650 H     301  ALD301      0.1495
     54  H14       15.8460  -23.3410    0.8490 H     301  ALD301      0.0594
     55 H241       17.4660  -21.7740   -0.0580 H     301  ALD301      0.0290
     56 H242       17.6270  -22.6630   -1.5160 H     301  ALD301      0.0290
     57  H25       18.5390  -24.6160   -0.0790 H     301  ALD301      0.0296
     58 H261       20.8130  -23.6020   -0.0150 H     301  ALD301      0.0232
     59 H262       20.1190  -22.0320   -0.3260 H     301  ALD301      0.0232
     60 H263       20.0000  -23.2920   -1.5280 H     301  ALD301      0.0232
     61 H271       18.2240  -22.4590    1.9900 H     301  ALD301      0.0232
     62 H272       19.6700  -23.4270    2.0750 H     301  ALD301      0.0232
     63 H273       18.1050  -24.1880    2.1700 H     301  ALD301      0.0232
     64  HNG       14.8090  -21.3060    0.4640 H     301  ALD301      0.1491
     65  H17       13.4450  -21.1120   -2.1620 H     301  ALD301      0.0525
     66 H221       13.8760  -18.8470   -0.2310 H     301  ALD301      0.0638
     67 H181       11.5760  -20.0050   -0.6430 H     301  ALD301      0.0286
     68 H182       12.3400  -20.8140    0.6600 H     301  ALD301      0.0286
     69  H19       11.4940  -22.3740   -1.7990 H     301  ALD301      0.0296
     70 H201       11.1750  -24.0230    0.3220 H     301  ALD301      0.0232
     71 H202       12.4980  -23.0370    0.9060 H     301  ALD301      0.0232
     72 H203       12.6550  -23.9080   -0.6040 H     301  ALD301      0.0232
     73 H211        9.6980  -20.9510   -0.0390 H     301  ALD301      0.0232
     74 H212        9.5220  -22.6540    0.2680 H     301  ALD301      0.0232
     75 H213        9.2950  -22.0330   -1.3400 H     301  ALD301      0.0232
     76  HOX       12.2950  -18.6240   -1.8690 H     301  ALD301      0.2100
@<TRIPOS>BOND
     1    51    18    1
     2    47    17    1
     3    50    18    1
     4    48    17    1
     5    18    52    1
     6    18    16    1
     7    17    49    1
     8    17    16    1
     9    44    15    1
    10    65    28    1
    11    34    76    1
    12    34    29    1
    13    22    21    2
    14    16    15    1
    15    16    46    1
    16    69    31    1
    17    60    25    1
    18    56    23    1
    19    53    19    1
    20    15    45    1
    21    15    12    1
    22    75    33    1
    23    29    28    1
    24    29    66    1
    25    28    27    1
    26    28    30    1
    27    21    27   am
    28    21    20    1
    29    43    12    1
    30    31    33    1
    31    31    30    1
    32    31    32    1
    33    67    30    1
    34    72    32    1
    35    19    20    1
    36    19    13   am
    37    27    64    1
    38    25    59    1
    39    25    58    1
    40    25    24    1
    41    33    73    1
    42    33    74    1
    43    23    20    1
    44    23    55    1
    45    23    24    1
    46    30    68    1
    47    12    13    1
    48    12    11    1
    49    20    54    1
    50    57    24    1
    51    32    70    1
    52    32    71    1
    53    24    26    1
    54    13    14    2
    55    35     4    1
    56    11    42    1
    57    11     1   am
    58    37     6    1
    59     3     4    1
    60     3     1    1
    61     4     5    1
    62     4    36    1
    63     1     2    2
    64     6     5   ar
    65     6     7   ar
    66    38     7    1
    67    26    61    1
    68    26    62    1
    69    26    63    1
    70     5    10   ar
    71     7     8   ar
    72    10    41    1
    73    10     9   ar
    74     8    39    1
    75     8     9   ar
    76     9    40    1
