@<TRIPOS>MOLECULE
/home/pku/3cl/gett_pdb/5SRA/5SRA_mol2/ligand/5SRA_R0L.pdb
 35 38 0 0 0
SMALL
GASTEIGER

@<TRIPOS>ATOM
      1  C18      -44.0150  -29.4980    5.8880 C.ar  201  R0L201      0.1204
      2  C16      -46.3140  -29.3350    6.1440 C.ar  201  R0L201      0.1442
      3  C13      -48.6680  -28.9950    3.4010 C.ar  201  R0L201     -0.0491
      4  C12      -50.0480  -28.8930    3.5240 C.ar  201  R0L201     -0.0257
      5  C11      -50.6390  -28.9260    4.7800 C.ar  201  R0L201      0.1254
      6  C10      -49.8520  -29.0530    5.9090 C.ar  201  R0L201     -0.0025
      7  C20      -46.0240  -30.4120    2.0390 C.3   201  R0L201      0.0371
      8  C02      -45.9070  -27.9200    0.0600 C.2   201  R0L201      0.0719
      9  C03      -44.6700  -28.7750    0.3460 C.3   201  R0L201      0.1133
     10  C04      -44.3370  -28.7430    1.8360 C.3   201  R0L201      0.0451
     11  C06      -45.3030  -29.2910    3.9950 C.ar  201  R0L201      0.1345
     12  C07      -46.4650  -29.2450    4.7780 C.ar  201  R0L201      0.0663
     13  C08      -47.8690  -29.1250    4.5480 C.ar  201  R0L201      0.0124
     14  C09      -48.4660  -29.1500    5.7930 C.ar  201  R0L201      0.0515
     15  C21      -45.2420  -31.0290    0.8830 C.3   201  R0L201      0.0643
     16  F14      -51.9920  -28.8330    4.9020 F     201  R0L201     -0.2054
     17  N05      -45.4730  -29.2030    2.5560 N.pl3 201  R0L201     -0.3095
     18  N15      -47.5150  -29.2790    6.7230 N.ar  201  R0L201     -0.3389
     19  N17      -45.0850  -29.4610    6.6490 N.ar  201  R0L201     -0.2178
     20  N19      -44.1070  -29.4150    4.5640 N.ar  201  R0L201     -0.2200
     21  O01      -45.7790  -26.7260   -0.3170 O.co2 201  R0L201     -0.5471
     22  O22      -44.8770  -30.1010   -0.1320 O.3   201  R0L201     -0.3677
     23  O23      -47.0600  -28.4040    0.1960 O.co2 201  R0L201     -0.5471
     24 H181      -43.0520  -29.6020    6.3770 H     201  R0L201      0.1048
     25 H131      -48.2190  -28.9750    2.4170 H     201  R0L201      0.0625
     26 H121      -50.6650  -28.8040    2.6410 H     201  R0L201      0.0646
     27 H101      -50.2940  -29.0750    6.8890 H     201  R0L201      0.0667
     28 H201      -46.9950  -30.1440    1.6380 H     201  R0L201      0.0487
     29 H202      -46.1710  -31.1420    2.8310 H     201  R0L201      0.0487
     30 H031      -43.8340  -28.3820   -0.1930 H     201  R0L201      0.0674
     31 H041      -44.1070  -27.7300    2.1510 H     201  R0L201      0.0493
     32 H042      -43.4710  -29.3780    2.0090 H     201  R0L201      0.0493
     33 H212      -45.8800  -31.7840    0.4400 H     201  R0L201      0.0576
     34 H211      -44.3360  -31.4930    1.2540 H     201  R0L201      0.0576
     35 H151      -47.6780  -29.3230    7.7100 H     201  R0L201      0.1673
@<TRIPOS>UNITY_ATOM_ATTR
23 1
charge -1
@<TRIPOS>BOND
     1    21     8   ar
     2    30     9    1
     3    22     9    1
     4    22    15    1
     5     8    23   ar
     6     8     9    1
     7     9    10    1
     8    33    15    1
     9    15    34    1
    10    15     7    1
    11    28     7    1
    12    10    32    1
    13    10    31    1
    14    10    17    1
    15     7    17    1
    16     7    29    1
    17    25     3    1
    18    17    11    1
    19    26     4    1
    20     3     4   ar
    21     3    13   ar
    22     4     5   ar
    23    11    20   ar
    24    11    12   ar
    25    13    12   ar
    26    13    14   ar
    27    20     1   ar
    28    12     2   ar
    29     5    16    1
    30     5     6   ar
    31    14     6   ar
    32    14    18   ar
    33     1    24    1
    34     1    19   ar
    35     6    27    1
    36     2    19   ar
    37     2    18   ar
    38    18    35    1
