LR9
  -OEChem-02242320033D

 27 27  0     0  0  0  0  0  0999 V2000
   -1.8050    0.5380    0.0640 N   0  0  0  0  0  0  0  0  0  0  0  0
   -1.0610   -0.5480    0.3540 C   0  0  0  0  0  0  0  0  0  0  0  0
    0.3990   -0.5280    0.1230 C   0  0  0  0  0  0  0  0  0  0  0  0
    1.0580   -1.6860   -0.2940 C   0  0  0  0  0  0  0  0  0  0  0  0
    2.4210   -1.6650   -0.5080 C   0  0  0  0  0  0  0  0  0  0  0  0
    3.1380   -0.5000   -0.3130 C   0  0  0  0  0  0  0  0  0  0  0  0
    1.1220    0.6500    0.3140 C   0  0  0  0  0  0  0  0  0  0  0  0
   -4.0490    0.0160   -0.7570 C   0  0  0  0  0  0  0  0  0  0  0  0
   -3.2270    0.5660    0.4110 C   0  0  0  0  0  0  0  0  0  0  0  0
   -1.1880    1.6930   -0.5940 C   0  0  0  0  0  0  0  0  0  0  0  0
   -1.5920   -1.5440    0.8060 O   0  0  0  0  0  0  0  0  0  0  0  0
    2.4920    0.6590    0.1010 C   0  0  0  0  0  0  0  0  0  0  0  0
    3.2200    1.8360    0.2920 N   0  0  0  0  0  0  0  0  0  0  0  0
    0.5010   -2.5990   -0.4470 H   0  0  0  0  0  0  0  0  0  0  0  0
    2.9290   -2.5620   -0.8300 H   0  0  0  0  0  0  0  0  0  0  0  0
    4.2050   -0.4900   -0.4830 H   0  0  0  0  0  0  0  0  0  0  0  0
    0.6170    1.5500    0.6320 H   0  0  0  0  0  0  0  0  0  0  0  0
   -3.8780    0.6300   -1.6420 H   0  0  0  0  0  0  0  0  0  0  0  0
   -3.7450   -1.0100   -0.9630 H   0  0  0  0  0  0  0  0  0  0  0  0
   -5.1070    0.0370   -0.4990 H   0  0  0  0  0  0  0  0  0  0  0  0
   -3.3980   -0.0470    1.2950 H   0  0  0  0  0  0  0  0  0  0  0  0
   -3.5310    1.5930    0.6170 H   0  0  0  0  0  0  0  0  0  0  0  0
   -0.8790    2.4180    0.1590 H   0  0  0  0  0  0  0  0  0  0  0  0
   -0.3170    1.3660   -1.1620 H   0  0  0  0  0  0  0  0  0  0  0  0
   -1.9090    2.1550   -1.2680 H   0  0  0  0  0  0  0  0  0  0  0  0
    2.7680    2.6460    0.5730 H   0  0  0  0  0  0  0  0  0  0  0  0
    4.1790    1.8420    0.1430 H   0  0  0  0  0  0  0  0  0  0  0  0
 12 13  1  0  0  0  0
  7 12  2  0  0  0  0
  6 12  1  0  0  0  0
  3  7  1  0  0  0  0
  5  6  2  0  0  0  0
  2  3  1  0  0  0  0
  3  4  2  0  0  0  0
  2 11  2  0  0  0  0
  1  2  1  0  0  0  0
  8  9  1  0  0  0  0
  4  5  1  0  0  0  0
  1  9  1  0  0  0  0
  1 10  1  0  0  0  0
  4 14  1  0  0  0  0
  5 15  1  0  0  0  0
  6 16  1  0  0  0  0
  7 17  1  0  0  0  0
  8 18  1  0  0  0  0
  8 19  1  0  0  0  0
  8 20  1  0  0  0  0
  9 21  1  0  0  0  0
  9 22  1  0  0  0  0
 10 23  1  0  0  0  0
 10 24  1  0  0  0  0
 10 25  1  0  0  0  0
 13 26  1  0  0  0  0
 13 27  1  0  0  0  0
M  END
> <OPENEYE_ISO_SMILES>
CCN(C)C(=O)c1cccc(c1)N

> <OPENEYE_INCHI>
InChI=1S/C10H14N2O/c1-3-12(2)10(13)8-5-4-6-9(11)7-8/h4-7H,3,11H2,1-2H3

> <OPENEYE_INCHIKEY>
URNKFNQWYLXELN-UHFFFAOYSA-N

> <FORMULA>
C10H14N2O

$$$$
