@<TRIPOS>MOLECULE
/home/pku/3cl/gett_pdb/7RMB/7RMB_mol2/ligand/7RMB_5Z7.pdb
 24 26 0 0 0
SMALL
GASTEIGER

@<TRIPOS>ATOM
      1  C1        14.6720   -1.6520   17.1890 C.ar  401  5Z7401      0.1442
      2  C10        9.0290    0.0540   19.3600 C.ar  401  5Z7401      0.0488
      3  C11        8.1370   -0.6720   18.5600 C.ar  401  5Z7401      0.0264
      4  C12        6.7680   -0.4650   18.6740 C.ar  401  5Z7401      0.0651
      5  C13        6.2590    0.4560   19.5740 C.ar  401  5Z7401      0.0452
      6  C14        7.1450    1.1810   20.3650 C.ar  401  5Z7401      0.0088
      7  C15        8.5030    0.9830   20.2690 C.ar  401  5Z7401      0.0151
      8  C17       15.9310   -3.7070   17.4520 C.ar  401  5Z7401      0.3715
      9  C2        14.2200   -0.4720   18.0050 C.2   401  5Z7401      0.2672
     10  C20       14.9520   -3.0700   15.2880 C.ar  401  5Z7401      0.2848
     11  C22       14.4250   -1.8660   15.8820 C.ar  401  5Z7401      0.0865
     12  C5        12.2190   -1.6950   18.9130 C.3   401  5Z7401      0.1152
     13  C6        10.8600   -1.2410   18.4310 C.3   401  5Z7401      0.1123
     14  C8        11.3100    1.0070   19.2530 C.3   401  5Z7401      0.1123
     15  C9        12.7270    0.5770   19.6110 C.3   401  5Z7401      0.1152
     16  N16       15.3980   -2.5430   17.9230 N.ar  401  5Z7401     -0.1860
     17  N19       15.6740   -3.9020   16.1290 N.ar  401  5Z7401     -0.1517
     18  N4        13.1530   -0.5740   18.8120 N.am  401  5Z7401     -0.2713
     19  N7        10.4080   -0.1390   19.2840 N.pl3 401  5Z7401     -0.3040
     20  O18       16.5750   -4.4830   18.1370 O.2   401  5Z7401     -0.2425
     21  O21       14.8130   -3.4100   14.1350 O.2   401  5Z7401     -0.2650
     22  O3        14.8870    0.5460   17.8900 O.2   401  5Z7401     -0.2682
     23 BR24        4.3960    0.7530   19.7420 Br    401  5Z7401     -0.0481
     24 CL23        5.6840   -1.3850   17.6560 Cl    401  5Z7401     -0.0817
@<TRIPOS>BOND
     1    21    10    2
     2    10    11   ar
     3    10    17   ar
     4    11     1   ar
     5    17     8   ar
     6     1    16   ar
     7     1     9    1
     8     8    16   ar
     9     8    20    2
    10    24     4    1
    11    22     9    2
    12     9    18   am
    13    13    12    1
    14    13    19    1
    15     3     4   ar
    16     3     2   ar
    17     4     5   ar
    18    18    12    1
    19    18    15    1
    20    14    19    1
    21    14    15    1
    22    19     2    1
    23     2     7   ar
    24     5    23    1
    25     5     6   ar
    26     7     6   ar
