@<TRIPOS>MOLECULE
/home/pku/3cl/gett_pdb/5SQS/5SQS_mol2/ligand/5SQS_QVC.pdb
 32 35 0 0 0
SMALL
GASTEIGER

@<TRIPOS>ATOM
      1  C17      -46.6320  -29.1500    6.5110 C.ar  201  QVC201      0.1387
      2  C15      -44.3710  -29.7160    6.8020 C.ar  201  QVC201      0.0305
      3  C14      -44.1420  -29.5440    5.4450 C.ar  201  QVC201     -0.0337
      4  C13      -45.1960  -29.1720    4.6100 C.ar  201  QVC201      0.0125
      5  C12      -45.9340  -29.0550    2.1910 C.ar  201  QVC201     -0.0233
      6  C11      -44.9250  -28.9640    3.1290 C.ar  201  QVC201      0.0724
      7  C20      -47.7630  -28.5860    4.6970 C.ar  201  QVC201     -0.0345
      8  C19      -48.6260  -28.5770    5.7800 C.ar  201  QVC201      0.0041
      9  C01      -50.1720  -29.1210   -1.3710 C.3   201  QVC201     -0.0012
     10  C02      -48.6690  -29.0340   -1.1520 C.ar  201  QVC201      0.1691
     11  C05      -46.7380  -28.9310   -0.1950 C.ar  201  QVC201      0.2586
     12  C07      -45.6460  -28.8460    0.8560 C.ar  201  QVC201      0.0429
     13  C08      -44.3430  -28.5330    0.5150 C.ar  201  QVC201     -0.0312
     14  C09      -43.3860  -28.4340    1.5130 C.ar  201  QVC201      0.0290
     15  C21      -46.4830  -28.9620    5.1710 C.ar  201  QVC201      0.0278
     16  N03      -47.7440  -28.9870   -2.1000 N.ar  201  QVC201     -0.0612
     17  N06      -48.0450  -28.9920    0.0470 N.ar  201  QVC201     -0.1921
     18  N10      -43.6940  -28.6680    2.7700 N.ar  201  QVC201     -0.2549
     19  N16      -45.5840  -29.5280    7.2670 N.ar  201  QVC201     -0.2375
     20  N18      -47.9290  -28.9020    6.8590 N.ar  201  QVC201     -0.3458
     21  O04      -46.5630  -28.9150   -1.4960 O.2   201  QVC201     -0.3328
     22 H151      -43.5670  -30.0110    7.4670 H     201  QVC201      0.0830
     23 H141      -43.1540  -29.7030    5.0440 H     201  QVC201      0.0639
     24 H121      -46.9450  -29.2990    2.4910 H     201  QVC201      0.0646
     25 H201      -48.0160  -28.3560    3.6670 H     201  QVC201      0.0639
     26 H191      -49.6700  -28.3240    5.7500 H     201  QVC201      0.0807
     27 H013      -50.3720  -29.8080   -2.1830 H     201  QVC201      0.0309
     28 H012      -50.5620  -28.1350   -1.6050 H     201  QVC201      0.0309
     29 H011      -50.6410  -29.4870   -0.4640 H     201  QVC201      0.0309
     30 H081      -44.0750  -28.3710   -0.5240 H     201  QVC201      0.0640
     31 H091      -42.3530  -28.2200    1.2410 H     201  QVC201      0.0830
     32 H181      -48.2980  -28.9780    7.7850 H     201  QVC201      0.1668
@<TRIPOS>BOND
     1    27     9    1
     2    16    21   ar
     3    16    10   ar
     4    28     9    1
     5    21    11   ar
     6     9    10    1
     7     9    29    1
     8    10    17   ar
     9    30    13    1
    10    11    17   ar
    11    11    12    1
    12    13    12   ar
    13    13    14   ar
    14    12     5   ar
    15    31    14    1
    16    14    18   ar
    17     5    24    1
    18     5     6   ar
    19    18     6   ar
    20     6     4    1
    21    25     7    1
    22     4    15   ar
    23     4     3   ar
    24     7    15   ar
    25     7     8   ar
    26    23     3    1
    27    15     1   ar
    28     3     2   ar
    29    26     8    1
    30     8    20   ar
    31     1    20   ar
    32     1    19   ar
    33     2    19   ar
    34     2    22    1
    35    20    32    1
