QXS
  -OEChem-02242320033D

 33 35  0     1  0  0  0  0  0999 V2000
   -2.1050    2.1930    0.2140 C   0  0  0  0  0  0  0  0  0  0  0  0
   -3.0690    0.1210   -0.0530 C   0  0  0  0  0  0  0  0  0  0  0  0
   -3.3070   -2.0990   -0.2740 C   0  0  0  0  0  0  0  0  0  0  0  0
   -1.9850   -1.8980   -0.1480 C   0  0  0  0  0  0  0  0  0  0  0  0
   -1.7880   -0.4580    0.0000 C   0  0  0  0  0  0  0  0  0  0  0  0
    2.9180   -0.0150    0.9860 C   0  0  1  0  0  0  0  0  0  0  0  0
    3.3050   -1.1790    0.0710 C   0  0  0  0  0  0  0  0  0  0  0  0
    3.7270   -0.6360   -1.2950 C   0  0  0  0  0  0  0  0  0  0  0  0
    2.5630    0.1370   -1.9190 C   0  0  0  0  0  0  0  0  0  0  0  0
    2.1770    1.3010   -1.0040 C   0  0  0  0  0  0  0  0  0  0  0  0
    1.7540    0.7580    0.3620 C   0  0  1  0  0  0  0  0  0  0  0  0
   -0.6750    0.3830    0.1570 C   0  0  0  0  0  0  0  0  0  0  0  0
    0.6060   -0.1370    0.1980 N   0  0  0  0  0  0  0  0  0  0  0  0
   -3.9660   -0.8980   -0.2190 N   0  0  0  0  0  0  0  0  0  0  0  0
   -3.1750    1.4440    0.0580 N   0  0  0  0  0  0  0  0  0  0  0  0
   -0.8840    1.6920    0.2640 N   0  0  0  0  0  0  0  0  0  0  0  0
    2.5240   -0.5230    2.2620 O   0  0  0  0  0  0  0  0  0  0  0  0
   -2.2290    3.2630    0.3010 H   0  0  0  0  0  0  0  0  0  0  0  0
   -3.7790   -3.0620   -0.4010 H   0  0  0  0  0  0  0  0  0  0  0  0
   -1.2150   -2.6560   -0.1550 H   0  0  0  0  0  0  0  0  0  0  0  0
    3.7730    0.6500    1.1080 H   0  0  0  0  0  0  0  0  0  0  0  0
    4.1340   -1.7300    0.5150 H   0  0  0  0  0  0  0  0  0  0  0  0
    2.4510   -1.8450   -0.0510 H   0  0  0  0  0  0  0  0  0  0  0  0
    4.5820    0.0300   -1.1730 H   0  0  0  0  0  0  0  0  0  0  0  0
    4.0030   -1.4650   -1.9470 H   0  0  0  0  0  0  0  0  0  0  0  0
    2.8640    0.5250   -2.8920 H   0  0  0  0  0  0  0  0  0  0  0  0
    1.7090   -0.5280   -2.0410 H   0  0  0  0  0  0  0  0  0  0  0  0
    3.0310    1.9670   -0.8820 H   0  0  0  0  0  0  0  0  0  0  0  0
    1.3470    1.8520   -1.4480 H   0  0  0  0  0  0  0  0  0  0  0  0
    1.4790    1.5870    1.0140 H   0  0  0  0  0  0  0  0  0  0  0  0
    0.7440   -1.0940    0.1190 H   0  0  0  0  0  0  0  0  0  0  0  0
   -4.9270   -0.7880   -0.2880 H   0  0  0  0  0  0  0  0  0  0  0  0
    3.2140   -1.0260    2.7160 H   0  0  0  0  0  0  0  0  0  0  0  0
  6 17  1  0  0  0  0
  6  7  1  0  0  0  0
  7  8  1  0  0  0  0
  8  9  1  0  0  0  0
  9 10  1  0  0  0  0
 10 11  1  0  0  0  0
 11 13  1  0  0  0  0
 12 13  1  0  0  0  0
  5 12  2  0  0  0  0
  4  5  1  0  0  0  0
  3  4  2  0  0  0  0
  3 14  1  0  0  0  0
  2 14  1  0  0  0  0
  2 15  2  0  0  0  0
  1 15  1  0  0  0  0
  1 16  2  0  0  0  0
  6 11  1  0  0  0  0
 12 16  1  0  0  0  0
  2  5  1  0  0  0  0
  1 18  1  0  0  0  0
  3 19  1  0  0  0  0
  4 20  1  0  0  0  0
  6 21  1  0  0  0  0
  7 22  1  0  0  0  0
  7 23  1  0  0  0  0
  8 24  1  0  0  0  0
  8 25  1  0  0  0  0
  9 26  1  0  0  0  0
  9 27  1  0  0  0  0
 10 28  1  0  0  0  0
 10 29  1  0  0  0  0
 11 30  1  0  0  0  0
 13 31  1  0  0  0  0
 14 32  1  0  0  0  0
 17 33  1  0  0  0  0
M  END
> <OPENEYE_ISO_SMILES>
c1c[nH]c2c1c(ncn2)N[C@@H]3CCCC[C@@H]3O

> <OPENEYE_INCHI>
InChI=1S/C12H16N4O/c17-10-4-2-1-3-9(10)16-12-8-5-6-13-11(8)14-7-15-12/h5-7,9-10,17H,1-4H2,(H2,13,14,15,16)/t9-,10+/m1/s1

> <OPENEYE_INCHIKEY>
FIVRTGMLMASIKD-ZJUUUORDSA-N

> <FORMULA>
C12H16N4O

$$$$
