QY0
  -OEChem-02242320033D

 33 35  0     1  0  0  0  0  0999 V2000
   -2.6340   -0.8920    0.8050 C   0  0  2  0  0  0  0  0  0  0  0  0
   -3.9860   -0.2000    0.9870 C   0  0  0  0  0  0  0  0  0  0  0  0
   -4.4630    0.3480   -0.3590 C   0  0  0  0  0  0  0  0  0  0  0  0
   -3.4410    1.3550   -0.8920 C   0  0  0  0  0  0  0  0  0  0  0  0
   -2.0890    0.6630   -1.0730 C   0  0  0  0  0  0  0  0  0  0  0  0
   -1.6120    0.1150    0.2730 C   0  0  2  0  0  0  0  0  0  0  0  0
    0.8500    0.1920    0.1370 C   0  0  0  0  0  0  0  0  0  0  0  0
    2.0990   -0.4260   -0.0220 C   0  0  0  0  0  0  0  0  0  0  0  0
    2.5570   -1.7960   -0.2420 C   0  0  0  0  0  0  0  0  0  0  0  0
    3.8970   -1.7520   -0.3130 C   0  0  0  0  0  0  0  0  0  0  0  0
    3.2580    0.3720    0.0240 C   0  0  0  0  0  0  0  0  0  0  0  0
    1.9290    2.2200    0.3620 C   0  0  0  0  0  0  0  0  0  0  0  0
   -0.3170   -0.5490    0.0990 N   0  0  0  0  0  0  0  0  0  0  0  0
    4.3280   -0.4600   -0.1550 N   0  0  0  0  0  0  0  0  0  0  0  0
    3.1210    1.6830    0.2170 N   0  0  0  0  0  0  0  0  0  0  0  0
    0.8170    1.5080    0.3300 N   0  0  0  0  0  0  0  0  0  0  0  0
   -2.7710   -1.9680   -0.1250 O   0  0  0  0  0  0  0  0  0  0  0  0
   -2.2940   -1.2830    1.7640 H   0  0  0  0  0  0  0  0  0  0  0  0
   -4.7140   -0.9170    1.3660 H   0  0  0  0  0  0  0  0  0  0  0  0
   -3.8810    0.6210    1.6960 H   0  0  0  0  0  0  0  0  0  0  0  0
   -4.5680   -0.4720   -1.0690 H   0  0  0  0  0  0  0  0  0  0  0  0
   -5.4260    0.8420   -0.2300 H   0  0  0  0  0  0  0  0  0  0  0  0
   -3.7820    1.7460   -1.8510 H   0  0  0  0  0  0  0  0  0  0  0  0
   -3.3370    2.1760   -0.1820 H   0  0  0  0  0  0  0  0  0  0  0  0
   -2.1940   -0.1580   -1.7830 H   0  0  0  0  0  0  0  0  0  0  0  0
   -1.3620    1.3800   -1.4520 H   0  0  0  0  0  0  0  0  0  0  0  0
   -1.5070    0.9350    0.9830 H   0  0  0  0  0  0  0  0  0  0  0  0
    1.9360   -2.6760   -0.3300 H   0  0  0  0  0  0  0  0  0  0  0  0
    4.5390   -2.6060   -0.4700 H   0  0  0  0  0  0  0  0  0  0  0  0
    1.8560    3.2860    0.5170 H   0  0  0  0  0  0  0  0  0  0  0  0
   -0.2790   -1.5070   -0.0430 H   0  0  0  0  0  0  0  0  0  0  0  0
    5.2560   -0.1780   -0.1690 H   0  0  0  0  0  0  0  0  0  0  0  0
   -3.4050   -2.6460    0.1480 H   0  0  0  0  0  0  0  0  0  0  0  0
  1 17  1  0  0  0  0
  1  2  1  0  0  0  0
  2  3  1  0  0  0  0
  3  4  1  0  0  0  0
  4  5  1  0  0  0  0
  5  6  1  0  0  0  0
  6 13  1  0  0  0  0
  7 13  1  0  0  0  0
  7  8  2  0  0  0  0
  8  9  1  0  0  0  0
  9 10  2  0  0  0  0
 10 14  1  0  0  0  0
 11 14  1  0  0  0  0
 11 15  2  0  0  0  0
 12 15  1  0  0  0  0
 12 16  2  0  0  0  0
  1  6  1  0  0  0  0
  7 16  1  0  0  0  0
  8 11  1  0  0  0  0
  1 18  1  0  0  0  0
  2 19  1  0  0  0  0
  2 20  1  0  0  0  0
  3 21  1  0  0  0  0
  3 22  1  0  0  0  0
  4 23  1  0  0  0  0
  4 24  1  0  0  0  0
  5 25  1  0  0  0  0
  5 26  1  0  0  0  0
  6 27  1  0  0  0  0
  9 28  1  0  0  0  0
 10 29  1  0  0  0  0
 12 30  1  0  0  0  0
 13 31  1  0  0  0  0
 14 32  1  0  0  0  0
 17 33  1  0  0  0  0
M  END
> <OPENEYE_ISO_SMILES>
c1c[nH]c2c1c(ncn2)N[C@H]3CCCC[C@H]3O

> <OPENEYE_INCHI>
InChI=1S/C12H16N4O/c17-10-4-2-1-3-9(10)16-12-8-5-6-13-11(8)14-7-15-12/h5-7,9-10,17H,1-4H2,(H2,13,14,15,16)/t9-,10+/m0/s1

> <OPENEYE_INCHIKEY>
FIVRTGMLMASIKD-VHSXEESVSA-N

> <FORMULA>
C12H16N4O

$$$$
