@<TRIPOS>MOLECULE
/home/pku/3cl/gett_pdb/5WKM/5WKM_mol2/ligand/5WKM_N02.pdb
 23 23 0 0 0
SMALL
GASTEIGER

@<TRIPOS>ATOM
      1  C02      -21.5580   -5.6680    2.0060 C.2   401  N02401      0.4216
      2  C04      -20.9340   -3.2780    1.8550 C.3   401  N02401      0.1761
      3  C05      -20.9890   -2.1610    0.8090 C.3   401  N02401      0.0312
      4  C06      -20.4960   -2.5860   -0.5880 C.3   401  N02401      0.0022
      5  C07      -18.9700   -2.7080   -0.6300 C.3   401  N02401      0.0001
      6  C08      -20.9810   -1.6240   -1.6740 C.3   401  N02401      0.0001
      7  C09      -21.4250   -2.7710    3.2180 C.2   401  N02401      0.2614
      8  C11      -21.0290   -1.4830    5.3580 C.3   401  N02401      0.1287
      9  C12      -20.3900   -2.3040    6.4980 C.3   401  N02401      0.0335
     10  C13      -20.8520   -3.7590    6.5260 C.3   401  N02401      0.0818
     11  C14      -20.0990   -4.5090    7.7040 C.2   401  N02401      0.2410
     12  C16      -22.4800   -4.8640    7.7800 C.3   401  N02401      0.1156
     13  C17      -22.3430   -3.8380    6.8830 C.3   401  N02401      0.0326
     14  C19      -20.7000    0.0040    5.4430 C.3   401  N02401      0.2036
     15  C23      -22.2630   -7.9090    2.3170 C.3   401  N02401      0.2574
     16  N03      -21.8070   -4.3560    1.4590 N.am  401  N02401     -0.1611
     17  N10      -20.5590   -1.9610    4.0710 N.am  401  N02401     -0.2030
     18  N15      -21.0570   -5.1420    8.4420 N.am  401  N02401     -0.2054
     19  O01      -20.7380   -5.8070    2.8670 O.2   401  N02401     -0.2245
     20  O18      -18.9250   -4.4980    7.8910 O.2   401  N02401     -0.2734
     21  O20      -21.1390    0.8760    6.4400 O.3   401  N02401     -0.2185
     22  O21      -22.5130   -3.0420    3.5870 O.2   401  N02401     -0.2715
     23  O22      -22.2920   -6.7540    1.5050 O.3   401  N02401     -0.4294
@<TRIPOS>BOND
     1     6     4    1
     2     5     4    1
     3     4     3    1
     4     3     2    1
     5    16     2    1
     6    16     1   am
     7    23     1    1
     8    23    15    1
     9     2     7    1
    10     1    19    2
    11     7    22    2
    12     7    17   am
    13    17     8    1
    14     8    14    1
    15     8     9    1
    16    14    21    1
    17     9    10    1
    18    10    13    1
    19    10    11    1
    20    13    12    1
    21    11    20    2
    22    11    18   am
    23    12    18    1
