@<TRIPOS>MOLECULE
/home/pku/3cl/gett_pdb/5S2A/5S2A_mol2/ligand/5S2A_WS4.pdb
 16 17 0 0 0
SMALL
GASTEIGER

@<TRIPOS>ATOM
      1  N1        -0.0890   10.8090   -7.5580 N.ar  201  WS4201     -0.1674
      2  C4         3.0350   10.1080  -12.2670 C.ar  201  WS4201      0.0739
      3  C5         3.9920    9.1130  -12.4040 C.ar  201  WS4201      0.0199
      4  C6         4.8570    9.1160  -13.4810 C.ar  201  WS4201      0.0434
      5  C7         2.9310   11.0880  -13.2460 C.ar  201  WS4201      0.0199
      6  C8         3.7970   11.0960  -14.3220 C.ar  201  WS4201      0.0434
      7  C10        0.1920    8.7550   -8.3960 C.ar  201  WS4201      0.1013
      8  O1         2.2050    7.9850  -10.3940 O.2   201  WS4201     -0.2679
      9  C3         1.8920    9.1670  -10.2490 C.2   201  WS4201      0.2721
     10  C2         1.0240    9.5950   -9.1090 C.ar  201  WS4201      0.0949
     11  C1         0.8050   10.8550   -8.5340 C.ar  201  WS4201      0.1262
     12  N         -0.4490    9.5060   -7.4910 N.ar  201  WS4201     -0.2472
     13  C         -1.4730    9.0770   -6.5480 C.3   201  WS4201      0.1538
     14  N2         2.2470   10.1760  -11.0920 N.am  201  WS4201     -0.1754
     15  C9         4.7720   10.1170  -14.4340 C.ar  201  WS4201      0.1958
     16  O          5.6760   10.1450  -15.4540 O.3   201  WS4201     -0.2866
@<TRIPOS>BOND
     1    16    15    1
     2    15     6   ar
     3    15     4   ar
     4     6     5   ar
     5     4     3   ar
     6     5     2   ar
     7     3     2   ar
     8     2    14    1
     9    14     9   am
    10     8     9    2
    11     9    10    1
    12    10    11   ar
    13    10     7   ar
    14    11     1   ar
    15     7    12   ar
    16     1    12   ar
    17    12    13    1
