@<TRIPOS>MOLECULE
/home/pku/3cl/gett_pdb/7JYY/7JYY_mol2/ligand/7JYY_M7G.pdb
 29 31 0 0 0
SMALL
GASTEIGER

@<TRIPOS>ATOM
      1  PA        83.8310   22.5730   13.7750 P.3     0  M7G0        0.2231
      2  O1A       85.3080   22.3890   13.7180 O.3     0  M7G0       -0.4370
      3  O2A       82.9550   21.5000   13.2230 O.2     0  M7G0       -0.5169
      4  O3A       83.4810   23.9760   13.0630 O.3     0  M7G0       -0.2261
      5  O5'       83.3640   22.9300   15.2820 O.3     0  M7G0       -0.3111
      6  PB        82.1000   24.7410   12.6550 P.3     0  M7G0        0.5373
      7  O1B       81.1430   24.6070   13.8100 O.3     0  M7G0       -0.1143
      8  O2B       82.4890   26.1790   12.3760 O.3     0  M7G0       -0.1143
      9  O3B       81.5980   23.9340   11.3510 O.2     0  M7G0       -0.2221
     10  C5'       82.9200   21.9000   16.2170 C.3     0  M7G0        0.1813
     11  C4'       82.0190   22.5070   17.2720 C.3     0  M7G0        0.1799
     12  O4'       82.6910   23.6120   17.9330 O.3     0  M7G0       -0.3326
     13  C3'       80.7000   23.1160   16.7700 C.3     0  M7G0        0.2158
     14  O3'       79.7260   22.1080   16.5210 O.3     0  M7G0       -0.2175
     15  C2'       80.3590   24.0750   17.9000 C.3     0  M7G0        0.2310
     16  O2'       79.8190   23.3950   19.0270 O.3     0  M7G0       -0.2158
     17  C1'       81.7420   24.6110   18.2810 C.3     0  M7G0        0.2283
     18  N9        82.1060   25.8790   17.6210 N.pl3   0  M7G0       -0.2503
     19  C8        83.0140   25.9410   16.4730 C.3     0  M7G0        0.1917
     20  N7        83.1100   27.3760   16.2270 N.pl3   0  M7G0       -0.2828
     21  CM7       83.9360   27.9400   15.1720 C.3     0  M7G0        0.1140
     22  C5        82.3320   28.0840   17.1520 C.ar    0  M7G0        0.1399
     23  C6        82.1420   29.4710   17.3220 C.ar    0  M7G0        0.2978
     24  O6        82.6220   30.4000   16.6690 O.2     0  M7G0       -0.2636
     25  N1        81.2770   29.7150   18.3930 N.ar    0  M7G0       -0.1712
     26  C2        80.6970   28.7590   19.1880 C.ar    0  M7G0        0.2604
     27  N2        79.8990   29.1960   20.1680 N.pl3   0  M7G0       -0.0859
     28  N3        80.8900   27.4600   19.0240 N.ar    0  M7G0       -0.1946
     29  C4        81.7230   27.1560   18.0050 C.ar    0  M7G0        0.1558
@<TRIPOS>BOND
     1     9     6    2
     2     8     6    1
     3     6     4    1
     4     6     7    1
     5     4     1    1
     6     3     1    2
     7     2     1    1
     8     1     5    1
     9    21    20    1
    10     5    10    1
    11    10    11    1
    12    20    19    1
    13    20    22    1
    14    19    18    1
    15    14    13    1
    16    24    23    2
    17    13    11    1
    18    13    15    1
    19    22    23   ar
    20    22    29   ar
    21    11    12    1
    22    23    25   ar
    23    18    29    1
    24    18    17    1
    25    15    17    1
    26    15    16    1
    27    12    17    1
    28    29    28   ar
    29    25    26   ar
    30    28    26   ar
    31    26    27    1
