GWV
  -OEChem-02242320023D

 34 34  0     0  0  0  0  0  0999 V2000
   -3.6940    0.0080    0.2820 N   0  0  0  0  0  0  0  0  0  0  0  0
    0.3700    0.0150   -0.6220 C   0  0  0  0  0  0  0  0  0  0  0  0
   -0.3380   -1.1730   -0.6360 C   0  0  0  0  0  0  0  0  0  0  0  0
   -1.6860   -1.1790   -0.3370 C   0  0  0  0  0  0  0  0  0  0  0  0
   -2.3310    0.0110   -0.0210 C   0  0  0  0  0  0  0  0  0  0  0  0
   -1.6170    1.2020   -0.0080 C   0  0  0  0  0  0  0  0  0  0  0  0
   -4.3740    1.2640    0.6080 C   0  0  0  0  0  0  0  0  0  0  0  0
   -4.4460   -1.2490    0.2670 C   0  0  0  0  0  0  0  0  0  0  0  0
   -0.2690    1.2010   -0.3080 C   0  0  0  0  0  0  0  0  0  0  0  0
    1.8430    0.0170   -0.9430 C   0  0  0  0  0  0  0  0  0  0  0  0
    2.6130   -0.1790    0.2920 N   0  0  0  0  0  0  0  0  0  0  0  0
    4.0560   -0.1840    0.0170 C   0  0  0  0  0  0  0  0  0  0  0  0
    4.5760    1.2550   -0.0010 C   0  0  0  0  0  0  0  0  0  0  0  0
    4.7810   -0.9740    1.1080 C   0  0  0  0  0  0  0  0  0  0  0  0
    0.1640   -2.0970   -0.8820 H   0  0  0  0  0  0  0  0  0  0  0  0
   -2.2380   -2.1070   -0.3480 H   0  0  0  0  0  0  0  0  0  0  0  0
   -2.1150    2.1280    0.2370 H   0  0  0  0  0  0  0  0  0  0  0  0
   -5.4270    1.0660    0.8090 H   0  0  0  0  0  0  0  0  0  0  0  0
   -3.9130    1.7080    1.4900 H   0  0  0  0  0  0  0  0  0  0  0  0
   -4.2880    1.9530   -0.2320 H   0  0  0  0  0  0  0  0  0  0  0  0
   -4.4120   -1.7050    1.2560 H   0  0  0  0  0  0  0  0  0  0  0  0
   -5.4820   -1.0500   -0.0060 H   0  0  0  0  0  0  0  0  0  0  0  0
   -4.0030   -1.9280   -0.4620 H   0  0  0  0  0  0  0  0  0  0  0  0
    0.2880    2.1260   -0.2940 H   0  0  0  0  0  0  0  0  0  0  0  0
    2.0630   -0.7910   -1.6410 H   0  0  0  0  0  0  0  0  0  0  0  0
    2.1150    0.9710   -1.3930 H   0  0  0  0  0  0  0  0  0  0  0  0
    2.3320   -1.0270    0.7630 H   0  0  0  0  0  0  0  0  0  0  0  0
    4.2400   -0.6480   -0.9510 H   0  0  0  0  0  0  0  0  0  0  0  0
    4.0600    1.8190   -0.7780 H   0  0  0  0  0  0  0  0  0  0  0  0
    4.3920    1.7200    0.9680 H   0  0  0  0  0  0  0  0  0  0  0  0
    5.6470    1.2530   -0.2050 H   0  0  0  0  0  0  0  0  0  0  0  0
    4.4110   -1.9990    1.1210 H   0  0  0  0  0  0  0  0  0  0  0  0
    5.8520   -0.9770    0.9040 H   0  0  0  0  0  0  0  0  0  0  0  0
    4.5970   -0.5090    2.0770 H   0  0  0  0  0  0  0  0  0  0  0  0
  1  7  1  0  0  0  0
  1  8  1  0  0  0  0
  1  5  1  0  0  0  0
  4  5  2  0  0  0  0
  3  4  1  0  0  0  0
 12 13  1  0  0  0  0
  5  6  1  0  0  0  0
  2  3  2  0  0  0  0
 12 14  1  0  0  0  0
 11 12  1  0  0  0  0
  6  9  2  0  0  0  0
  2  9  1  0  0  0  0
  2 10  1  0  0  0  0
 10 11  1  0  0  0  0
  3 15  1  0  0  0  0
  4 16  1  0  0  0  0
  6 17  1  0  0  0  0
  7 18  1  0  0  0  0
  7 19  1  0  0  0  0
  7 20  1  0  0  0  0
  8 21  1  0  0  0  0
  8 22  1  0  0  0  0
  8 23  1  0  0  0  0
  9 24  1  0  0  0  0
 10 25  1  0  0  0  0
 10 26  1  0  0  0  0
 11 27  1  0  0  0  0
 12 28  1  0  0  0  0
 13 29  1  0  0  0  0
 13 30  1  0  0  0  0
 13 31  1  0  0  0  0
 14 32  1  0  0  0  0
 14 33  1  0  0  0  0
 14 34  1  0  0  0  0
M  END
> <OPENEYE_ISO_SMILES>
CC(C)NCc1ccc(cc1)N(C)C

> <OPENEYE_INCHI>
InChI=1S/C12H20N2/c1-10(2)13-9-11-5-7-12(8-6-11)14(3)4/h5-8,10,13H,9H2,1-4H3

> <OPENEYE_INCHIKEY>
NZXPKDJRJFKEIC-UHFFFAOYSA-N

> <FORMULA>
C12H20N2

$$$$
