8ZI
  -OEChem-02242320013D

 86 88  0     1  0  0  0  0  0999 V2000
   -0.3520   -0.7020    0.3260 N   0  0  0  0  0  0  0  0  0  0  0  0
    3.2690    0.0040    0.1470 N   0  0  0  0  0  0  0  0  0  0  0  0
    0.2290   -2.9580    0.8790 C   0  0  1  0  0  0  0  0  0  0  0  0
    0.0020   -2.6060    2.3510 C   0  0  0  0  0  0  0  0  0  0  0  0
   -1.1650   -1.6750    2.6820 C   0  0  0  0  0  0  0  0  0  0  0  0
    0.2930   -3.6930    3.3880 C   0  0  0  0  0  0  0  0  0  0  0  0
   -0.4610   -2.0850   -0.1920 C   0  0  0  0  0  0  0  0  0  0  0  0
   -2.5760    0.0450   -0.4560 C   0  0  2  0  0  0  0  0  0  0  0  0
   -1.3440   -0.5390   -2.5490 C   0  0  0  0  0  0  0  0  0  0  0  0
   -4.9130    0.5470    0.0180 C   0  0  0  0  0  0  0  0  0  0  0  0
   -7.3560    0.8010    0.3580 C   0  0  0  0  0  0  0  0  0  0  0  0
   -8.4430    1.6950    0.9600 C   0  0  0  0  0  0  0  0  0  0  0  0
    4.2730    0.1870   -0.9040 C   0  0  2  0  0  0  0  0  0  0  0  0
    4.9880   -1.1410   -1.1630 C   0  0  2  0  0  0  0  0  0  0  0  0
    5.2920    1.2370   -0.4590 C   0  0  0  0  0  0  0  0  0  0  0  0
    5.6160    3.6810    0.0990 C   0  0  0  0  0  0  0  0  0  0  0  0
    3.5990    2.5650    0.8130 C   0  0  0  0  0  0  0  0  0  0  0  0
    1.7630   -0.7050   -1.3200 O   0  0  0  0  0  0  0  0  0  0  0  0
    2.0390   -0.4490   -0.1670 C   0  0  0  0  0  0  0  0  0  0  0  0
    1.0060   -0.6370    0.9140 C   0  0  2  0  0  0  0  0  0  0  0  0
    1.1960   -2.0020    1.6090 C   0  0  2  0  0  0  0  0  0  0  0  0
   -1.2760    0.2780    0.2690 C   0  0  0  0  0  0  0  0  0  0  0  0
   -2.4010    0.3830   -1.9380 C   0  0  0  0  0  0  0  0  0  0  0  0
   -3.7310    0.1880   -2.6670 C   0  0  0  0  0  0  0  0  0  0  0  0
   -1.9510    1.8390   -2.0790 C   0  0  0  0  0  0  0  0  0  0  0  0
   -3.6170    0.9010    0.1200 N   0  0  0  0  0  0  0  0  0  0  0  0
   -5.9830    1.4280    0.6110 C   0  0  0  0  0  0  0  0  0  0  0  0
   -7.4140   -0.5810    1.0110 C   0  0  0  0  0  0  0  0  0  0  0  0
   -7.5850    0.6640   -1.1480 C   0  0  0  0  0  0  0  0  0  0  0  0
   -5.2190   -0.4800   -0.5500 O   0  0  0  0  0  0  0  0  0  0  0  0
   -1.0620    1.3450    0.8030 O   0  0  0  0  0  0  0  0  0  0  0  0
    3.9840   -2.1750   -1.6020 C   0  0  0  0  0  0  0  0  0  0  0  0
    3.3270   -2.0240   -2.7690 N   0  0  0  0  0  0  0  0  0  0  0  0
    3.7660   -3.1430   -0.9040 O   0  0  0  0  0  0  0  0  0  0  0  0
    5.6290   -1.5780    0.0370 O   0  0  0  0  0  0  0  0  0  0  0  0
    4.6000    2.5940   -0.3210 C   0  0  2  0  0  0  0  0  0  0  0  0
    5.4630    3.6790    1.6360 C   0  0  0  0  0  0  0  0  0  0  0  0
    4.1060    3.1840    1.8940 N   0  0  0  0  0  0  0  0  0  0  0  0
    2.4990    2.0570    0.7560 O   0  0  0  0  0  0  0  0  0  0  0  0
    3.4890    0.2090    1.0690 H   0  0  0  0  0  0  0  0  0  0  0  0
    0.5190   -3.9730    0.6080 H   0  0  0  0  0  0  0  0  0  0  0  0
   -0.8120   -0.8590    3.3120 H   0  0  0  0  0  0  0  0  0  0  0  0
   -1.5790   -1.2680    1.7590 H   0  0  0  0  0  0  0  0  0  0  0  0
   -1.9380   -2.2340    3.2110 H   0  0  0  0  0  0  0  0  0  0  0  0
    0.7770   -4.5390    2.9020 H   0  0  0  0  0  0  0  0  0  0  0  0
    0.9510   -3.2920    4.1590 H   0  0  0  0  0  0  0  0  0  0  0  0
   -0.6420   -4.0210    3.8430 H   0  0  0  0  0  0  0  0  0  0  0  0
   -1.5080   -2.3700   -0.2980 H   0  0  0  0  0  0  0  0  0  0  0  0
    0.0570   -2.1760   -1.1470 H   0  0  0  0  0  0  0  0  0  0  0  0
   -2.8680   -1.0000   -0.3540 H   0  0  0  0  0  0  0  0  0  0  0  0
   -1.6810   -1.5730   -2.4830 H   0  0  0  0  0  0  0  0  0  0  0  0
   -1.1910   -0.2730   -3.5960 H   0  0  0  0  0  0  0  0  0  0  0  0
   -0.4060   -0.4270   -2.0060 H   0  0  0  0  0  0  0  0  0  0  0  0
   -8.2800    1.7930    2.0330 H   0  0  0  0  0  0  0  0  0  0  0  0
   -8.4010    2.6800    0.4950 H   0  0  0  0  0  0  0  0  0  0  0  0
   -9.4210    1.2490    0.7800 H   0  0  0  0  0  0  0  0  0  0  0  0
    3.7840    0.5210   -1.8200 H   0  0  0  0  0  0  0  0  0  0  0  0
    5.7350   -1.0050   -1.9450 H   0  0  0  0  0  0  0  0  0  0  0  0
    5.7170    0.9470    0.5020 H   0  0  0  0  0  0  0  0  0  0  0  0
    6.0880    1.3090   -1.2010 H   0  0  0  0  0  0  0  0  0  0  0  0
    6.6290    3.4010   -0.1920 H   0  0  0  0  0  0  0  0  0  0  0  0
    5.3460    4.6500   -0.3190 H   0  0  0  0  0  0  0  0  0  0  0  0
    1.0670    0.1730    1.6410 H   0  0  0  0  0  0  0  0  0  0  0  0
    2.2080   -2.2860    1.8980 H   0  0  0  0  0  0  0  0  0  0  0  0
   -4.4840    0.8440   -2.2310 H   0  0  0  0  0  0  0  0  0  0  0  0
   -3.6060    0.4280   -3.7230 H   0  0  0  0  0  0  0  0  0  0  0  0
   -4.0520   -0.8500   -2.5660 H   0  0  0  0  0  0  0  0  0  0  0  0
   -1.0030    1.9780   -1.5600 H   0  0  0  0  0  0  0  0  0  0  0  0
   -1.8260    2.0790   -3.1350 H   0  0  0  0  0  0  0  0  0  0  0  0
   -2.7040    2.4960   -1.6440 H   0  0  0  0  0  0  0  0  0  0  0  0
   -3.3720    1.7230    0.5740 H   0  0  0  0  0  0  0  0  0  0  0  0
   -5.8200    1.5250    1.6840 H   0  0  0  0  0  0  0  0  0  0  0  0
   -5.9420    2.4120    0.1460 H   0  0  0  0  0  0  0  0  0  0  0  0
   -8.3920   -1.0270    0.8310 H   0  0  0  0  0  0  0  0  0  0  0  0
   -6.6400   -1.2180    0.5820 H   0  0  0  0  0  0  0  0  0  0  0  0
   -7.2510   -0.4830    2.0840 H   0  0  0  0  0  0  0  0  0  0  0  0
   -8.5630    0.2180   -1.3280 H   0  0  0  0  0  0  0  0  0  0  0  0
   -7.5440    1.6490   -1.6130 H   0  0  0  0  0  0  0  0  0  0  0  0
   -6.8110    0.0270   -1.5770 H   0  0  0  0  0  0  0  0  0  0  0  0
    3.5010   -1.2500   -3.3270 H   0  0  0  0  0  0  0  0  0  0  0  0
    2.6810   -2.6900   -3.0510 H   0  0  0  0  0  0  0  0  0  0  0  0
    5.0230   -1.7200    0.7770 H   0  0  0  0  0  0  0  0  0  0  0  0
    4.1120    2.8690   -1.2560 H   0  0  0  0  0  0  0  0  0  0  0  0
    6.2000    3.0150    2.0880 H   0  0  0  0  0  0  0  0  0  0  0  0
    5.5780    4.6900    2.0280 H   0  0  0  0  0  0  0  0  0  0  0  0
    3.6360    3.2890    2.7360 H   0  0  0  0  0  0  0  0  0  0  0  0
 17 39  2  0  0  0  0
 17 38  1  0  0  0  0
 17 36  1  0  0  0  0
 37 38  1  0  0  0  0
 32 34  2  0  0  0  0
 15 36  1  0  0  0  0
 13 15  1  0  0  0  0
 16 36  1  0  0  0  0
 16 37  1  0  0  0  0
 14 32  1  0  0  0  0
 32 33  1  0  0  0  0
 13 14  1  0  0  0  0
 14 35  1  0  0  0  0
  2 13  1  0  0  0  0
  2 19  1  0  0  0  0
 22 31  2  0  0  0  0
 23 24  1  0  0  0  0
 19 20  1  0  0  0  0
 18 19  2  0  0  0  0
  1 20  1  0  0  0  0
 20 21  1  0  0  0  0
  1 22  1  0  0  0  0
  8 22  1  0  0  0  0
 11 12  1  0  0  0  0
 11 29  1  0  0  0  0
 11 27  1  0  0  0  0
 10 27  1  0  0  0  0
  8 26  1  0  0  0  0
 10 26  1  0  0  0  0
  4  5  1  0  0  0  0
  1  7  1  0  0  0  0
 11 28  1  0  0  0  0
  4 21  1  0  0  0  0
  3 21  1  0  0  0  0
  8 23  1  0  0  0  0
 10 30  2  0  0  0  0
  9 23  1  0  0  0  0
 23 25  1  0  0  0  0
  4  6  1  0  0  0  0
  3  4  1  0  0  0  0
  3  7  1  0  0  0  0
  2 40  1  0  0  0  0
  3 41  1  0  0  0  0
  5 42  1  0  0  0  0
  5 43  1  0  0  0  0
  5 44  1  0  0  0  0
  6 45  1  0  0  0  0
  6 46  1  0  0  0  0
  6 47  1  0  0  0  0
  7 48  1  0  0  0  0
  7 49  1  0  0  0  0
  8 50  1  0  0  0  0
  9 51  1  0  0  0  0
  9 52  1  0  0  0  0
  9 53  1  0  0  0  0
 12 54  1  0  0  0  0
 12 55  1  0  0  0  0
 12 56  1  0  0  0  0
 13 57  1  0  0  0  0
 14 58  1  0  0  0  0
 15 59  1  0  0  0  0
 15 60  1  0  0  0  0
 16 61  1  0  0  0  0
 16 62  1  0  0  0  0
 20 63  1  0  0  0  0
 21 64  1  0  0  0  0
 24 65  1  0  0  0  0
 24 66  1  0  0  0  0
 24 67  1  0  0  0  0
 25 68  1  0  0  0  0
 25 69  1  0  0  0  0
 25 70  1  0  0  0  0
 26 71  1  0  0  0  0
 27 72  1  0  0  0  0
 27 73  1  0  0  0  0
 28 74  1  0  0  0  0
 28 75  1  0  0  0  0
 28 76  1  0  0  0  0
 29 77  1  0  0  0  0
 29 78  1  0  0  0  0
 29 79  1  0  0  0  0
 33 80  1  0  0  0  0
 33 81  1  0  0  0  0
 35 82  1  0  0  0  0
 36 83  1  0  0  0  0
 37 84  1  0  0  0  0
 37 85  1  0  0  0  0
 38 86  1  0  0  0  0
M  END
> <OPENEYE_ISO_SMILES>
CC1([C@@H]2[C@H]1[C@H](N(C2)C(=O)[C@H](C(C)(C)C)NC(=O)CC(C)(C)C)C(=O)N[C@@H](C[C@@H]3CCNC3=O)[C@H](C(=O)N)O)C

> <OPENEYE_INCHI>
InChI=1S/C28H47N5O6/c1-26(2,3)12-17(34)32-21(27(4,5)6)25(39)33-13-15-18(28(15,7)8)19(33)24(38)31-16(20(35)22(29)36)11-14-9-10-30-23(14)37/h14-16,18-21,35H,9-13H2,1-8H3,(H2,29,36)(H,30,37)(H,31,38)(H,32,34)/t14-,15-,16-,18-,19-,20+,21+/m0/s1

> <OPENEYE_INCHIKEY>
AQCHRJCCMXXILC-CMBJTQIYSA-N

> <FORMULA>
C28H47N5O6

$$$$
