@<TRIPOS>MOLECULE
/home/pku/3cl/gett_pdb/8DZ6/8DZ6_mol2/ligand/8DZ6_4WI.pdb
 68 70 0 0 0
SMALL
GASTEIGER

@<TRIPOS>ATOM
      1  C8       -16.8440    5.0350   25.4650 C.2   401  4WI401      0.2162
      2  C3       -21.0430    2.8070   24.3640 C.2   401  4WI401      0.0750
      3  C1       -21.7250    4.2240   27.4910 C.2   401  4WI401      0.2344
      4  C13      -20.3540    5.6580   29.8190 C.2   401  4WI401      0.2371
      5  C21      -19.8220    6.3860   33.2090 C.2   401  4WI401      0.3179
      6  C6       -18.7800    6.4230   25.2730 C.3   401  4WI401     -0.0262
      7  C7       -17.5180    7.2670   25.2900 C.3   401  4WI401      0.0123
      8  C10      -22.7490    5.4530   30.6050 C.3   401  4WI401      0.0192
      9  C5       -18.3190    5.0720   25.8160 C.3   401  4WI401      0.0390
     10  C9       -21.7780    3.8810   28.9760 C.3   401  4WI401      0.1058
     11  C11      -23.7330    4.3070   30.4170 C.3   401  4WI401     -0.0142
     12  C12      -23.1640    3.3850   29.3570 C.3   401  4WI401     -0.0037
     13  C18      -23.3850    2.8740   30.7640 C.3   401  4WI401     -0.0250
     14  C19      -24.5010    1.8660   30.9430 C.3   401  4WI401     -0.0592
     15  C20      -22.2250    2.6090   31.7030 C.3   401  4WI401     -0.0592
     16  C16      -18.9950    8.0050   28.7880 C.3   401  4WI401     -0.0579
     17  C17      -20.4750    9.2520   30.3400 C.3   401  4WI401     -0.0579
     18  C23      -18.2140    8.5280   31.0900 C.3   401  4WI401     -0.0579
     19  C4       -19.0020    3.8140   25.2930 C.3   401  4WI401     -0.0177
     20  C2       -20.5260    3.7900   25.3950 C.3   401  4WI401      0.0672
     21  C14      -20.1080    6.8050   30.8080 C.3   401  4WI401      0.1047
     22  C22      -19.0860    5.5950   34.2970 C.3   401  4WI401      0.4694
     23  C15      -19.4420    8.1170   30.2560 C.3   401  4WI401     -0.0108
     24  N5       -21.5070    3.1660   23.2380 N.2   401  4WI401     -0.3003
     25  N2       -16.4690    6.2660   25.1140 N.am  401  4WI401     -0.3151
     26  N3       -21.5680    5.0680   29.8140 N.am  401  4WI401     -0.2878
     27  N1       -20.9610    3.4200   26.7340 N.am  401  4WI401     -0.3054
     28  N4       -19.4010    6.2320   31.9490 N.am  401  4WI401     -0.2962
     29  O1       -16.1170    4.0190   25.4860 O.2   401  4WI401     -0.2755
     30  O2       -22.3190    5.2080   27.0500 O.2   401  4WI401     -0.2737
     31  O3       -19.4590    5.2440   29.0830 O.2   401  4WI401     -0.2735
     32  O4       -20.7380    7.1130   33.5400 O.2   401  4WI401     -0.2660
     33  F1       -19.7070    5.6680   35.4670 F     401  4WI401     -0.1620
     34  F2       -18.9850    4.3070   33.9930 F     401  4WI401     -0.1620
     35  F3       -17.8580    6.0550   34.4940 F     401  4WI401     -0.1620
     36  H5       -19.1270    6.3360   24.3620 H     401  4WI401      0.0288
     37  H6       -19.4730    6.8160   25.8420 H     401  4WI401      0.0288
     38  H7       -17.4180    7.7430   26.1450 H     401  4WI401      0.0462
     39  H8       -17.5140    7.9220   24.5570 H     401  4WI401      0.0462
     40  H11      -22.5170    5.5600   31.5510 H     401  4WI401      0.0468
     41  H12      -23.1270    6.2950   30.2750 H     401  4WI401      0.0468
     42  H4       -18.3980    5.0820   26.8010 H     401  4WI401      0.0395
     43  H10      -21.0970    3.1970   29.1830 H     401  4WI401      0.0600
     44  H13      -24.6820    4.5190   30.4200 H     401  4WI401      0.0325
     45  H14      -23.7530    3.0140   28.6430 H     401  4WI401      0.0332
     46  H23      -24.9430    1.7150   30.0930 H     401  4WI401      0.0235
     47  H24      -25.1460    2.2040   31.5830 H     401  4WI401      0.0235
     48  H25      -24.1380    1.0270   31.2670 H     401  4WI401      0.0235
     49  H26      -21.3960    2.8710   31.2850 H     401  4WI401      0.0235
     50  H27      -22.1880    1.6640   31.9210 H     401  4WI401      0.0235
     51  H28      -22.3440    3.1200   32.5190 H     401  4WI401      0.0235
     52  H17      -19.2250    7.1330   28.4340 H     401  4WI401      0.0236
     53  H19      -19.4390    8.6880   28.2560 H     401  4WI401      0.0236
     54  H18      -18.0330    8.1310   28.7250 H     401  4WI401      0.0236
     55  H20      -21.3090    8.9130   30.7070 H     401  4WI401      0.0236
     56  H21      -20.6430    9.6130   29.4520 H     401  4WI401      0.0236
     57  H22      -20.1400    9.9620   30.9140 H     401  4WI401      0.0236
     58  H29      -18.0790    7.8990   31.8150 H     401  4WI401      0.0236
     59  H30      -18.3520    9.4160   31.4620 H     401  4WI401      0.0236
     60  H31      -17.4220    8.5380   30.5270 H     401  4WI401      0.0236
     61  H2       -18.7550    3.6990   24.3510 H     401  4WI401      0.0294
     62  H3       -18.6470    3.0430   25.7830 H     401  4WI401      0.0294
     63  H32      -20.8770    4.6900   25.1760 H     401  4WI401      0.0564
     64  H15      -20.9890    7.0880   31.1480 H     401  4WI401      0.0600
     65  H36      -21.6720    2.6370   22.6530 H     401  4WI401      0.1865
     66  H9       -15.6730    6.4460   24.8030 H     401  4WI401      0.1487
     67  H1       -20.7160    2.6480   27.0500 H     401  4WI401      0.1494
     68  H16      -18.6750    5.7640   31.8110 H     401  4WI401      0.1497
@<TRIPOS>BOND
     1    65    24    1
     2    24     2    2
     3    61    19    1
     4    36     6    1
     5     2    20    1
     6    39     7    1
     7    66    25    1
     8    25     7    1
     9    25     1   am
    10    63    20    1
    11     6     7    1
    12     6     9    1
    13     6    37    1
    14     7    38    1
    15    19    20    1
    16    19    62    1
    17    19     9    1
    18    20    27    1
    19     1    29    2
    20     1     9    1
    21     9    42    1
    22    27    67    1
    23    27     3   am
    24    30     3    2
    25     3    10    1
    26    53    16    1
    27    52    16    1
    28    45    12    1
    29    54    16    1
    30    16    23    1
    31    10    43    1
    32    10    12    1
    33    10    26    1
    34    31     4    2
    35    12    11    1
    36    12    13    1
    37    56    17    1
    38    26     4   am
    39    26     8    1
    40     4    21    1
    41    46    14    1
    42    23    17    1
    43    23    21    1
    44    23    18    1
    45    41     8    1
    46    17    55    1
    47    17    57    1
    48    11    44    1
    49    11     8    1
    50    11    13    1
    51    60    18    1
    52     8    40    1
    53    13    14    1
    54    13    15    1
    55    21    64    1
    56    21    28    1
    57    14    48    1
    58    14    47    1
    59    18    59    1
    60    18    58    1
    61    49    15    1
    62    15    50    1
    63    15    51    1
    64    68    28    1
    65    28     5   am
    66     5    32    2
    67     5    22    1
    68    34    22    1
    69    22    35    1
    70    22    33    1
