YKY
  -OEChem-02242320043D

 62 63  0     1  0  0  0  0  0999 V2000
    6.4150    0.3000    0.1360 C   0  0  0  0  0  0  0  0  0  0  0  0
    8.7360    0.0610    1.6220 C   0  0  0  0  0  0  0  0  0  0  0  0
    0.4130   -0.4250   -0.4500 C   0  0  1  0  0  0  0  0  0  0  0  0
    0.2310   -1.7850   -1.1270 C   0  0  0  0  0  0  0  0  0  0  0  0
   -1.0130   -1.7490   -2.0180 C   0  0  0  0  0  0  0  0  0  0  0  0
   -0.7820   -0.7760   -3.1760 C   0  0  0  0  0  0  0  0  0  0  0  0
   -1.2830   -3.1490   -2.5740 C   0  0  0  0  0  0  0  0  0  0  0  0
   -0.6790   -0.2210    0.5680 C   0  0  0  0  0  0  0  0  0  0  0  0
   -4.1100    1.1000    0.4630 C   0  0  0  0  0  0  0  0  0  0  0  0
   -4.6450    3.1920   -0.8100 C   0  0  0  0  0  0  0  0  0  0  0  0
   -4.2260    4.5550    0.8950 C   0  0  0  0  0  0  0  0  0  0  0  0
   -3.5380   -0.9670    1.7430 C   0  0  2  0  0  0  0  0  0  0  0  0
    7.6280    0.6850   -0.4080 C   0  0  0  0  0  0  0  0  0  0  0  0
    7.5240   -0.3220    2.1650 C   0  0  0  0  0  0  0  0  0  0  0  0
    6.3640   -0.2030    1.4220 C   0  0  0  0  0  0  0  0  0  0  0  0
   -0.4180   -0.2600    1.7520 O   0  0  0  0  0  0  0  0  0  0  0  0
    2.8070    0.0310   -0.4610 C   0  0  0  0  0  0  0  0  0  0  0  0
   -2.9810    0.3270    1.1470 C   0  0  1  0  0  0  0  0  0  0  0  0
   -3.5770    2.4450   -0.0380 C   0  0  1  0  0  0  0  0  0  0  0  0
   -3.2880    3.3930    1.1460 C   0  0  0  0  0  0  0  0  0  0  0  0
    5.1490    0.4360   -0.6700 C   0  0  0  0  0  0  0  0  0  0  0  0
    8.7890    0.5650    0.3360 C   0  0  0  0  0  0  0  0  0  0  0  0
    7.6790    1.1760   -1.6660 F   0  0  0  0  0  0  0  0  0  0  0  0
    1.7170   -0.3820    0.2160 N   0  0  0  0  0  0  0  0  0  0  0  0
   -1.9440    0.0050    0.1640 N   0  0  0  0  0  0  0  0  0  0  0  0
   -4.9060    4.3450   -0.1770 N   0  0  0  0  0  0  0  0  0  0  0  0
    2.6930    0.4520   -1.5950 O   0  0  0  0  0  0  0  0  0  0  0  0
   -5.1740    2.8130   -1.8340 O   0  0  0  0  0  0  0  0  0  0  0  0
   -2.5110   -1.6320    2.4810 O   0  0  0  0  0  0  0  0  0  0  0  0
    4.0210   -0.0250    0.1180 O   0  0  0  0  0  0  0  0  0  0  0  0
    9.6420   -0.0320    2.2030 H   0  0  0  0  0  0  0  0  0  0  0  0
    0.3620    0.3640   -1.2010 H   0  0  0  0  0  0  0  0  0  0  0  0
    1.1070   -2.0080   -1.7360 H   0  0  0  0  0  0  0  0  0  0  0  0
    0.1110   -2.5560   -0.3670 H   0  0  0  0  0  0  0  0  0  0  0  0
   -1.8700   -1.4190   -1.4320 H   0  0  0  0  0  0  0  0  0  0  0  0
   -1.6910   -0.7000   -3.7730 H   0  0  0  0  0  0  0  0  0  0  0  0
   -0.5250    0.2060   -2.7800 H   0  0  0  0  0  0  0  0  0  0  0  0
    0.0330   -1.1410   -3.8010 H   0  0  0  0  0  0  0  0  0  0  0  0
   -1.4460   -3.8420   -1.7490 H   0  0  0  0  0  0  0  0  0  0  0  0
   -2.1680   -3.1230   -3.2080 H   0  0  0  0  0  0  0  0  0  0  0  0
   -0.4250   -3.4790   -3.1600 H   0  0  0  0  0  0  0  0  0  0  0  0
   -4.4870    0.5220   -0.3810 H   0  0  0  0  0  0  0  0  0  0  0  0
   -4.9170    1.2720    1.1750 H   0  0  0  0  0  0  0  0  0  0  0  0
   -4.3110    5.4290    1.5230 H   0  0  0  0  0  0  0  0  0  0  0  0
   -4.1190   -2.0480    0.4070 S   0  0  0  0  0  0  0  0  0  0  0  0
   -4.3700   -0.7320    2.4080 H   0  0  0  0  0  0  0  0  0  0  0  0
    7.4830   -0.7160    3.1700 H   0  0  0  0  0  0  0  0  0  0  0  0
    5.4180   -0.5030    1.8480 H   0  0  0  0  0  0  0  0  0  0  0  0
   -2.5520    0.9380    1.9410 H   0  0  0  0  0  0  0  0  0  0  0  0
   -2.6860    2.3020   -0.6490 H   0  0  0  0  0  0  0  0  0  0  0  0
   -2.2500    3.7260    1.1280 H   0  0  0  0  0  0  0  0  0  0  0  0
   -3.5210    2.9080    2.0940 H   0  0  0  0  0  0  0  0  0  0  0  0
    5.0010    1.4820   -0.9410 H   0  0  0  0  0  0  0  0  0  0  0  0
    5.2290   -0.1650   -1.5760 H   0  0  0  0  0  0  0  0  0  0  0  0
    9.7360    0.8650   -0.0880 H   0  0  0  0  0  0  0  0  0  0  0  0
    1.7960   -0.6500    1.1450 H   0  0  0  0  0  0  0  0  0  0  0  0
   -2.1690   -0.0460   -0.7790 H   0  0  0  0  0  0  0  0  0  0  0  0
   -1.7380   -1.8720    1.9520 H   0  0  0  0  0  0  0  0  0  0  0  0
   -5.2670   -1.4930   -0.2200 O   0  0  0  0  0  0  0  0  0  0  0  0
   -3.0230   -2.5240   -0.3610 O   0  0  0  0  0  0  0  0  0  0  0  0
   -4.6430   -3.2860    1.1210 O   0  0  0  0  0  0  0  0  0  0  0  0
   -4.9920   -3.9640    0.5270 H   0  0  0  0  0  0  0  0  0  0  0  0
 13 23  1  0  0  0  0
 10 28  2  0  0  0  0
 13 22  2  0  0  0  0
  1 13  1  0  0  0  0
  2 22  1  0  0  0  0
 10 26  1  0  0  0  0
 10 19  1  0  0  0  0
  1 21  1  0  0  0  0
 21 30  1  0  0  0  0
  1 15  2  0  0  0  0
 11 26  2  0  0  0  0
  2 14  2  0  0  0  0
 17 27  2  0  0  0  0
 14 15  1  0  0  0  0
 17 30  1  0  0  0  0
  9 19  1  0  0  0  0
 19 20  1  0  0  0  0
 17 24  1  0  0  0  0
 11 20  1  0  0  0  0
  9 18  1  0  0  0  0
  5  6  1  0  0  0  0
  3 24  1  0  0  0  0
  3  8  1  0  0  0  0
  3  4  1  0  0  0  0
  8 25  1  0  0  0  0
 18 25  1  0  0  0  0
  8 16  2  0  0  0  0
 12 18  1  0  0  0  0
  4  5  1  0  0  0  0
  5  7  1  0  0  0  0
 12 29  1  0  0  0  0
  2 31  1  0  0  0  0
  3 32  1  0  0  0  0
  4 33  1  0  0  0  0
  4 34  1  0  0  0  0
  5 35  1  0  0  0  0
  6 36  1  0  0  0  0
  6 37  1  0  0  0  0
  6 38  1  0  0  0  0
  7 39  1  0  0  0  0
  7 40  1  0  0  0  0
  7 41  1  0  0  0  0
  9 42  1  0  0  0  0
  9 43  1  0  0  0  0
 11 44  1  0  0  0  0
 12 45  1  0  0  0  0
 12 46  1  0  0  0  0
 14 47  1  0  0  0  0
 15 48  1  0  0  0  0
 18 49  1  0  0  0  0
 19 50  1  0  0  0  0
 20 51  1  0  0  0  0
 20 52  1  0  0  0  0
 21 53  1  0  0  0  0
 21 54  1  0  0  0  0
 22 55  1  0  0  0  0
 24 56  1  0  0  0  0
 25 57  1  0  0  0  0
 29 58  1  0  0  0  0
 45 59  2  0  0  0  0
 45 60  2  0  0  0  0
 45 61  1  0  0  0  0
 61 62  1  0  0  0  0
M  END
> <OPENEYE_ISO_SMILES>
CC(C)C[C@@H](C(=O)N[C@@H](C[C@@H]1CC=NC1=O)[C@H](O)S(=O)(=O)O)NC(=O)OCc2ccccc2F

> <OPENEYE_INCHI>
InChI=1S/C21H28FN3O8S/c1-12(2)9-16(25-21(29)33-11-14-5-3-4-6-15(14)22)19(27)24-17(20(28)34(30,31)32)10-13-7-8-23-18(13)26/h3-6,8,12-13,16-17,20,28H,7,9-11H2,1-2H3,(H,24,27)(H,25,29)(H,30,31,32)/t13-,16-,17-,20+/m0/s1

> <OPENEYE_INCHIKEY>
VAWJCTITNJHIPN-VZYKRBATSA-N

> <FORMULA>
C21H28FN3O8S

$$$$
