YL7
  -OEChem-02242320043D

 62 63  0     1  0  0  0  0  0999 V2000
    2.9060    0.3440   -1.0640 C   0  0  1  0  0  0  0  0  0  0  0  0
    4.3970    4.4300   -0.7860 C   0  0  0  0  0  0  0  0  0  0  0  0
    3.3720    3.3310   -0.9700 C   0  0  0  0  0  0  0  0  0  0  0  0
    5.4350    2.6130    1.8600 O   0  0  0  0  0  0  0  0  0  0  0  0
   -5.2360    0.4730    0.6270 C   0  0  0  0  0  0  0  0  0  0  0  0
   -6.4890    0.3360   -0.2000 C   0  0  0  0  0  0  0  0  0  0  0  0
   -7.5690   -0.3060   -2.2380 C   0  0  0  0  0  0  0  0  0  0  0  0
   -8.7880    0.0860   -1.7180 C   0  0  0  0  0  0  0  0  0  0  0  0
   -8.8590    0.6090   -0.4400 C   0  0  0  0  0  0  0  0  0  0  0  0
   -7.7090    0.7340    0.3200 C   0  0  0  0  0  0  0  0  0  0  0  0
   -2.8930    0.0510    0.4610 C   0  0  0  0  0  0  0  0  0  0  0  0
   -0.5030   -0.4200    0.4960 C   0  0  1  0  0  0  0  0  0  0  0  0
   -0.3450   -1.7700    1.1990 C   0  0  0  0  0  0  0  0  0  0  0  0
    0.9070   -1.7450    2.0770 C   0  0  0  0  0  0  0  0  0  0  0  0
    0.7110   -0.7410    3.2150 C   0  0  0  0  0  0  0  0  0  0  0  0
    1.1480   -3.1380    2.6620 C   0  0  0  0  0  0  0  0  0  0  0  0
    0.6080   -0.2430   -0.5070 C   0  0  0  0  0  0  0  0  0  0  0  0
    4.0970    0.9880   -0.3510 C   0  0  0  0  0  0  0  0  0  0  0  0
    3.6870    2.3600    0.1880 C   0  0  1  0  0  0  0  0  0  0  0  0
    4.8530    3.0340    0.8820 C   0  0  0  0  0  0  0  0  0  0  0  0
    3.3580   -0.9520   -1.7410 C   0  0  1  0  0  0  0  0  0  0  0  0
   -6.4190   -0.1810   -1.4800 C   0  0  0  0  0  0  0  0  0  0  0  0
   -7.7770    1.2450    1.5690 F   0  0  0  0  0  0  0  0  0  0  0  0
   -1.7950   -0.3750   -0.1930 N   0  0  0  0  0  0  0  0  0  0  0  0
    1.8560    0.0440   -0.0880 N   0  0  0  0  0  0  0  0  0  0  0  0
    5.1420    4.1690    0.2300 N   0  0  0  0  0  0  0  0  0  0  0  0
   -2.7960    0.4840    1.5930 O   0  0  0  0  0  0  0  0  0  0  0  0
    4.4600   -0.6770   -2.6080 O   0  0  0  0  0  0  0  0  0  0  0  0
    0.3790   -0.3600   -1.6930 O   0  0  0  0  0  0  0  0  0  0  0  0
   -4.0970   -0.0030   -0.1380 O   0  0  0  0  0  0  0  0  0  0  0  0
    2.5180    1.0310   -1.8160 H   0  0  0  0  0  0  0  0  0  0  0  0
    4.4910    5.3020   -1.4170 H   0  0  0  0  0  0  0  0  0  0  0  0
    2.3620    3.7280   -0.8750 H   0  0  0  0  0  0  0  0  0  0  0  0
    3.5030    2.8400   -1.9340 H   0  0  0  0  0  0  0  0  0  0  0  0
   -5.0860    1.5210    0.8880 H   0  0  0  0  0  0  0  0  0  0  0  0
   -5.3350   -0.1180    1.5370 H   0  0  0  0  0  0  0  0  0  0  0  0
   -7.5130   -0.7100   -3.2380 H   0  0  0  0  0  0  0  0  0  0  0  0
   -9.6840   -0.0120   -2.3120 H   0  0  0  0  0  0  0  0  0  0  0  0
   -9.8110    0.9150   -0.0340 H   0  0  0  0  0  0  0  0  0  0  0  0
   -0.4560    0.3820    1.2340 H   0  0  0  0  0  0  0  0  0  0  0  0
   -1.2210   -1.9600    1.8190 H   0  0  0  0  0  0  0  0  0  0  0  0
   -0.2500   -2.5590    0.4520 H   0  0  0  0  0  0  0  0  0  0  0  0
    1.7670   -1.4490    1.4760 H   0  0  0  0  0  0  0  0  0  0  0  0
   -0.1060   -1.0730    3.8560 H   0  0  0  0  0  0  0  0  0  0  0  0
    1.6280   -0.6730    3.8020 H   0  0  0  0  0  0  0  0  0  0  0  0
    0.4720    0.2380    2.8000 H   0  0  0  0  0  0  0  0  0  0  0  0
    1.2870   -3.8530    1.8510 H   0  0  0  0  0  0  0  0  0  0  0  0
    2.0400   -3.1200    3.2880 H   0  0  0  0  0  0  0  0  0  0  0  0
    0.2880   -3.4330    3.2630 H   0  0  0  0  0  0  0  0  0  0  0  0
    4.4120    0.3520    0.4760 H   0  0  0  0  0  0  0  0  0  0  0  0
    4.9220    1.1050   -1.0540 H   0  0  0  0  0  0  0  0  0  0  0  0
    2.8330    2.2700    0.8600 H   0  0  0  0  0  0  0  0  0  0  0  0
    2.5330   -1.3650   -2.3230 H   0  0  0  0  0  0  0  0  0  0  0  0
    3.8650   -2.1500   -0.4770 S   0  0  0  0  0  0  0  0  0  0  0  0
   -5.4670   -0.4870   -1.8870 H   0  0  0  0  0  0  0  0  0  0  0  0
   -1.8600   -0.6530   -1.1200 H   0  0  0  0  0  0  0  0  0  0  0  0
    2.0590    0.0520    0.8610 H   0  0  0  0  0  0  0  0  0  0  0  0
    5.2320   -0.3070   -2.1570 H   0  0  0  0  0  0  0  0  0  0  0  0
    4.9910   -1.6670    0.2440 O   0  0  0  0  0  0  0  0  0  0  0  0
    2.7300   -2.6720    0.2000 O   0  0  0  0  0  0  0  0  0  0  0  0
    4.4060   -3.3320   -1.2700 O   0  0  0  0  0  0  0  0  0  0  0  0
    4.7200   -4.0630   -0.7200 H   0  0  0  0  0  0  0  0  0  0  0  0
 10 23  1  0  0  0  0
  4 20  2  0  0  0  0
  9 10  2  0  0  0  0
  6 10  1  0  0  0  0
  8  9  1  0  0  0  0
 20 26  1  0  0  0  0
 19 20  1  0  0  0  0
  5  6  1  0  0  0  0
  5 30  1  0  0  0  0
  6 22  2  0  0  0  0
  2 26  2  0  0  0  0
  7  8  2  0  0  0  0
 11 27  2  0  0  0  0
  7 22  1  0  0  0  0
 11 30  1  0  0  0  0
 18 19  1  0  0  0  0
  3 19  1  0  0  0  0
 11 24  1  0  0  0  0
  2  3  1  0  0  0  0
  1 18  1  0  0  0  0
 14 15  1  0  0  0  0
 12 24  1  0  0  0  0
 12 17  1  0  0  0  0
 12 13  1  0  0  0  0
 17 25  1  0  0  0  0
  1 25  1  0  0  0  0
 17 29  2  0  0  0  0
  1 21  1  0  0  0  0
 13 14  1  0  0  0  0
 14 16  1  0  0  0  0
 21 28  1  0  0  0  0
  1 31  1  0  0  0  0
  2 32  1  0  0  0  0
  3 33  1  0  0  0  0
  3 34  1  0  0  0  0
  5 35  1  0  0  0  0
  5 36  1  0  0  0  0
  7 37  1  0  0  0  0
  8 38  1  0  0  0  0
  9 39  1  0  0  0  0
 12 40  1  0  0  0  0
 13 41  1  0  0  0  0
 13 42  1  0  0  0  0
 14 43  1  0  0  0  0
 15 44  1  0  0  0  0
 15 45  1  0  0  0  0
 15 46  1  0  0  0  0
 16 47  1  0  0  0  0
 16 48  1  0  0  0  0
 16 49  1  0  0  0  0
 18 50  1  0  0  0  0
 18 51  1  0  0  0  0
 19 52  1  0  0  0  0
 21 53  1  0  0  0  0
 21 54  1  0  0  0  0
 22 55  1  0  0  0  0
 24 56  1  0  0  0  0
 25 57  1  0  0  0  0
 28 58  1  0  0  0  0
 54 59  2  0  0  0  0
 54 60  2  0  0  0  0
 54 61  1  0  0  0  0
 61 62  1  0  0  0  0
M  END
> <OPENEYE_ISO_SMILES>
CC(C)C[C@@H](C(=O)N[C@@H](C[C@@H]1CC=NC1=O)[C@@H](O)S(=O)(=O)O)NC(=O)OCc2ccccc2F

> <OPENEYE_INCHI>
InChI=1S/C21H28FN3O8S/c1-12(2)9-16(25-21(29)33-11-14-5-3-4-6-15(14)22)19(27)24-17(20(28)34(30,31)32)10-13-7-8-23-18(13)26/h3-6,8,12-13,16-17,20,28H,7,9-11H2,1-2H3,(H,24,27)(H,25,29)(H,30,31,32)/t13-,16-,17-,20-/m0/s1

> <OPENEYE_INCHIKEY>
VAWJCTITNJHIPN-FDRFZEDHSA-N

> <FORMULA>
C21H28FN3O8S

$$$$
