@<TRIPOS>MOLECULE
/home/pku/3cl/gett_pdb/5SQP/5SQP_mol2/ligand/5SQP_QTO.pdb
 43 46 0 0 0
SMALL
GASTEIGER

@<TRIPOS>ATOM
      1  C18      -46.6490  -29.3580    4.8250 C.ar  201  QTO201      0.0184
      2  C16      -50.9130  -28.6840    4.9110 C.ar  201  QTO201     -0.0600
      3  C17      -49.6020  -28.5860    5.4410 C.ar  201  QTO201     -0.0405
      4  C15      -51.8080  -29.6360    5.4180 C.ar  201  QTO201     -0.0616
      5  C14      -51.3940  -30.4920    6.4420 C.ar  201  QTO201     -0.0600
      6  C13      -50.0870  -30.3920    6.9630 C.ar  201  QTO201     -0.0405
      7  C12      -49.1640  -29.4520    6.4770 C.ar  201  QTO201      0.0324
      8  C10      -46.6510  -29.3130    6.2590 C.ar  201  QTO201      0.1279
      9  C20      -44.7050  -27.7930    0.7720 C.3   201  QTO201      0.0279
     10  C19      -44.2030  -28.4680    2.1080 C.3   201  QTO201      0.0226
     11  C02      -46.1340  -29.7590   -0.4140 C.2   201  QTO201      0.1272
     12  C03      -46.0870  -28.4600    0.5060 C.3   201  QTO201      0.1816
     13  C04      -46.5300  -28.8700    1.8930 C.3   201  QTO201      0.0542
     14  C06      -45.4050  -29.2830    4.1400 C.ar  201  QTO201      0.1264
     15  C08      -44.3190  -29.1470    6.1930 C.ar  201  QTO201      0.1201
     16  C21      -44.6980  -26.2540    0.9610 C.3   201  QTO201     -0.0426
     17  C22      -43.5230  -26.1240   -0.0220 C.3   201  QTO201     -0.0517
     18  C23      -43.6940  -27.6290   -0.4140 C.3   201  QTO201     -0.0426
     19  F24      -47.0750  -27.5520    0.0250 F     201  QTO201     -0.2325
     20  N05      -45.3180  -29.3230    2.6670 N.pl3 201  QTO201     -0.3110
     21  N07      -44.2260  -29.1830    4.8350 N.ar  201  QTO201     -0.2206
     22  N09      -45.4800  -29.2130    6.9040 N.ar  201  QTO201     -0.2205
     23  N11      -47.8200  -29.3770    7.0530 N.pl3 201  QTO201     -0.2993
     24  O01      -46.8810  -29.7250   -1.4050 O.co2 201  QTO201     -0.8454
     25  O25      -45.3970  -30.7620   -0.0820 O.co2 201  QTO201     -0.3056
     26 H181      -47.5800  -29.4420    4.2780 H     201  QTO201      0.0686
     27 H161      -51.2530  -28.0060    4.0930 H     201  QTO201      0.0618
     28 H171      -48.9070  -27.8330    5.0260 H     201  QTO201      0.0636
     29 H151      -52.8360  -29.7060    5.0030 H     201  QTO201      0.0618
     30 H141      -52.0920  -31.2490    6.8470 H     201  QTO201      0.0618
     31 H131      -49.7810  -31.0840    7.7710 H     201  QTO201      0.0636
     32 H192      -43.3010  -29.1530    1.9100 H     201  QTO201      0.0471
     33 H191      -43.7720  -27.8030    2.9150 H     201  QTO201      0.0471
     34 H041      -47.0580  -27.9580    2.2860 H     201  QTO201      0.0500
     35 H042      -47.2990  -29.6750    1.7700 H     201  QTO201      0.0500
     36 H081      -43.3910  -29.0480    6.7800 H     201  QTO201      0.1048
     37 H212      -44.5000  -25.9320    1.9900 H     201  QTO201      0.0272
     38 H211      -45.6390  -25.7590    0.6540 H     201  QTO201      0.0272
     39 H221      -42.5660  -25.8540    0.4680 H     201  QTO201      0.0266
     40 H222      -43.6750  -25.3810   -0.8320 H     201  QTO201      0.0266
     41 H232      -42.7400  -28.2040   -0.3630 H     201  QTO201      0.0272
     42 H231      -44.0950  -27.7820   -1.4310 H     201  QTO201      0.0272
     43 H111      -47.7850  -28.9810    7.9810 H     201  QTO201      0.1536
@<TRIPOS>UNITY_ATOM_ATTR
24 1
charge -1
@<TRIPOS>BOND
     1    42    18    1
     2    24    11   ar
     3    40    17    1
     4    18    41    1
     5    18    17    1
     6    18     9    1
     7    11    25   ar
     8    11    12    1
     9    17    39    1
    10    17    16    1
    11    19    12    1
    12    12     9    1
    13    12    13    1
    14    38    16    1
    15     9    16    1
    16     9    10    1
    17    16    37    1
    18    35    13    1
    19    13    34    1
    20    13    20    1
    21    32    10    1
    22    10    20    1
    23    10    33    1
    24    20    14    1
    25    27     2    1
    26    14     1   ar
    27    14    21   ar
    28    26     1    1
    29     1     8   ar
    30    21    15   ar
    31     2     4   ar
    32     2     3   ar
    33    29     4    1
    34    28     3    1
    35     4     5   ar
    36     3     7   ar
    37    15    36    1
    38    15    22   ar
    39     8    22   ar
    40     8    23    1
    41     5    30    1
    42     5     6   ar
    43     7     6   ar
    44     7    23    1
    45     6    31    1
    46    23    43    1
