QXC
  -OEChem-02242320033D

 28 30  0     0  0  0  0  0  0999 V2000
    4.3560    0.5730   -1.1790 C   0  0  0  0  0  0  0  0  0  0  0  0
    5.0730    0.7860   -0.0160 C   0  0  0  0  0  0  0  0  0  0  0  0
    4.5410    0.3640    1.1920 C   0  0  0  0  0  0  0  0  0  0  0  0
    3.3010   -0.2580    1.1860 C   0  0  0  0  0  0  0  0  0  0  0  0
    2.6430   -0.4360   -0.0160 C   0  0  0  0  0  0  0  0  0  0  0  0
   -2.1140    0.4800    0.0140 C   0  0  0  0  0  0  0  0  0  0  0  0
   -2.1660    1.9400    0.0550 C   0  0  0  0  0  0  0  0  0  0  0  0
    1.2960   -1.1110   -0.0340 C   0  0  0  0  0  0  0  0  0  0  0  0
   -1.0890   -0.4780   -0.0140 C   0  0  0  0  0  0  0  0  0  0  0  0
   -2.6950   -2.1340   -0.0600 C   0  0  0  0  0  0  0  0  0  0  0  0
   -3.4500    0.0390    0.0090 C   0  0  0  0  0  0  0  0  0  0  0  0
   -3.4650    2.2820    0.0660 C   0  0  0  0  0  0  0  0  0  0  0  0
    0.2400   -0.0950   -0.0040 N   0  0  0  0  0  0  0  0  0  0  0  0
   -1.4270   -1.7640   -0.0510 N   0  0  0  0  0  0  0  0  0  0  0  0
   -3.6880   -1.2720   -0.0260 N   0  0  0  0  0  0  0  0  0  0  0  0
   -4.2420    1.1530    0.0450 N   0  0  0  0  0  0  0  0  0  0  0  0
    3.1780   -0.0180   -1.1460 N   0  0  0  0  0  0  0  0  0  0  0  0
    4.7640    0.8990   -2.1250 H   0  0  0  0  0  0  0  0  0  0  0  0
    6.0360    1.2740   -0.0490 H   0  0  0  0  0  0  0  0  0  0  0  0
    5.0780    0.5170    2.1160 H   0  0  0  0  0  0  0  0  0  0  0  0
    2.8560   -0.5990    2.1090 H   0  0  0  0  0  0  0  0  0  0  0  0
   -1.3230    2.6140    0.0730 H   0  0  0  0  0  0  0  0  0  0  0  0
    1.2010   -1.7070   -0.9410 H   0  0  0  0  0  0  0  0  0  0  0  0
    1.2020   -1.7580    0.8380 H   0  0  0  0  0  0  0  0  0  0  0  0
   -2.9270   -3.1880   -0.0900 H   0  0  0  0  0  0  0  0  0  0  0  0
   -3.8400    3.2940    0.0950 H   0  0  0  0  0  0  0  0  0  0  0  0
    0.4740    0.8460    0.0220 H   0  0  0  0  0  0  0  0  0  0  0  0
   -5.2130    1.1460    0.0480 H   0  0  0  0  0  0  0  0  0  0  0  0
  9 13  1  0  0  0  0
  9 14  2  0  0  0  0
 10 14  1  0  0  0  0
 10 15  2  0  0  0  0
 11 15  1  0  0  0  0
 11 16  1  0  0  0  0
 12 16  1  0  0  0  0
  7 12  2  0  0  0  0
  6  7  1  0  0  0  0
  8 13  1  0  0  0  0
  5  8  1  0  0  0  0
  4  5  2  0  0  0  0
  3  4  1  0  0  0  0
  2  3  2  0  0  0  0
  1  2  1  0  0  0  0
  1 17  2  0  0  0  0
  6  9  1  0  0  0  0
  6 11  2  0  0  0  0
  5 17  1  0  0  0  0
  1 18  1  0  0  0  0
  2 19  1  0  0  0  0
  3 20  1  0  0  0  0
  4 21  1  0  0  0  0
  7 22  1  0  0  0  0
  8 23  1  0  0  0  0
  8 24  1  0  0  0  0
 10 25  1  0  0  0  0
 12 26  1  0  0  0  0
 13 27  1  0  0  0  0
 16 28  1  0  0  0  0
M  END
> <OPENEYE_ISO_SMILES>
c1ccnc(c1)CNc2c3cc[nH]c3ncn2

> <OPENEYE_INCHI>
InChI=1S/C12H11N5/c1-2-5-13-9(3-1)7-15-12-10-4-6-14-11(10)16-8-17-12/h1-6,8H,7H2,(H2,14,15,16,17)

> <OPENEYE_INCHIKEY>
DZWJUUHHWFVLBE-UHFFFAOYSA-N

> <FORMULA>
C12H11N5

$$$$
