@<TRIPOS>MOLECULE
/home/pku/3cl/gett_pdb/8F46/8F46_mol2/ligand/8F46_XCK.pdb
 33 34 0 0 0
SMALL
GASTEIGER

@<TRIPOS>ATOM
      1  C02       10.9530   24.0610   25.7660 C.2   401  XCK401      0.4215
      2  C04       11.8620   22.0280   27.0450 C.3   401  XCK401      0.1761
      3  C05       12.9450   21.6990   28.1080 C.3   401  XCK401      0.0312
      4  C06       14.3730   22.2470   27.7050 C.3   401  XCK401      0.0022
      5  C07       14.8520   21.6120   26.3570 C.3   401  XCK401      0.0001
      6  C08       15.4040   22.0750   28.8730 C.3   401  XCK401      0.0001
      7  C09       10.4620   21.5800   27.5360 C.2   401  XCK401      0.2616
      8  C11        8.6370   19.7520   27.4900 C.3   401  XCK401      0.1386
      9  C12        7.6690   19.6750   26.3090 C.3   401  XCK401      0.0371
     10  C13        7.3310   21.0690   25.6610 C.3   401  XCK401      0.0821
     11  C14        6.2780   20.9790   24.4720 C.2   401  XCK401      0.2410
     12  C16        5.3920   22.5330   25.8960 C.3   401  XCK401      0.1156
     13  C17        6.4900   21.8310   26.6690 C.3   401  XCK401      0.0326
     14  C19        8.8650   18.2810   27.9850 C.2   401  XCK401      0.1171
     15  C23        9.7420   26.0820   24.8110 C.3   401  XCK401      0.2202
     16  C24        9.9500   27.6760   24.7290 C.3   401  XCK401      0.0837
     17  C25       11.4840   27.9670   24.5500 C.3   401  XCK401      0.0149
     18  C26        9.4160   28.2640   26.0250 C.3   401  XCK401      0.0149
     19  C28        8.6240   30.3190   23.5580 C.ar  401  XCK401      0.0253
     20  C29        7.3030   30.7680   23.7750 C.ar  401  XCK401      0.0062
     21  C30        7.0260   32.1390   23.9960 C.ar  401  XCK401      0.0005
     22  C31        8.0770   33.0770   24.0050 C.ar  401  XCK401      0.0000
     23  C32        9.3980   32.6310   23.7910 C.ar  401  XCK401      0.0005
     24  C33        9.6760   31.2590   23.5690 C.ar  401  XCK401      0.0062
     25  N03       11.8440   23.5020   26.7250 N.am  401  XCK401     -0.1611
     26  N10        9.9630   20.2840   27.0640 N.am  401  XCK401     -0.1995
     27  N15        5.1780   21.7950   24.6330 N.am  401  XCK401     -0.2054
     28  N20        8.1610   17.7960   28.9330 N.2   401  XCK401     -0.1496
     29  O01       10.4180   23.3330   24.9530 O.2   401  XCK401     -0.2246
     30  O18        6.4860   20.2250   23.5570 O.2   401  XCK401     -0.2734
     31  O21        9.7590   22.3130   28.1980 O.2   401  XCK401     -0.2715
     32  O22       10.6530   25.4380   25.7310 O.3   401  XCK401     -0.4326
     33  S27        9.0030   28.5050   23.2690 S.3   401  XCK401     -0.1117
@<TRIPOS>BOND
     1    33    19    1
     2    33    16    1
     3    30    11    2
     4    19    24   ar
     5    19    20   ar
     6    24    23   ar
     7    20    21   ar
     8    23    22   ar
     9    21    22   ar
    10    11    27   am
    11    11    10    1
    12    17    16    1
    13    27    12    1
    14    16    15    1
    15    16    18    1
    16    15    32    1
    17    29     1    2
    18    10     9    1
    19    10    13    1
    20    32     1    1
    21     1    25   am
    22    12    13    1
    23     9     8    1
    24     5     4    1
    25    25     2    1
    26     2     7    1
    27     2     3    1
    28    26     8    1
    29    26     7   am
    30     8    14    1
    31     7    31    2
    32     4     3    1
    33     4     6    1
    34    14    28    2
