@<TRIPOS>MOLECULE
/home/pku/3cl/gett_pdb/5RUJ/5RUJ_mol2/ligand/5RUJ_2SX.pdb
 21 22 0 0 0
SMALL
GASTEIGER

@<TRIPOS>ATOM
      1  O14      -44.3360  -33.0360    2.4320 O.co2 201  2SX201     -0.8474
      2  C12      -43.7820  -31.9640    2.3910 C.2   201  2SX201      0.0915
      3  O13      -43.4350  -31.4080    3.4090 O.co2 201  2SX201     -0.3087
      4  C11      -43.4640  -31.4350    0.9980 C.3   201  2SX201      0.0232
      5  C9       -43.4680  -29.9460    0.8320 C.ar  201  2SX201     -0.0161
      6  C5       -44.5790  -29.1130    0.5290 C.ar  201  2SX201      0.0042
      7  C4       -45.8920  -29.4160    0.3260 C.ar  201  2SX201     -0.0383
      8  C1       -46.7620  -28.4360    0.0340 C.ar  201  2SX201      0.0186
      9 BR1       -48.6460  -28.7480   -0.3480 Br    201  2SX201     -0.0503
     10  C8       -42.4010  -29.0930    0.9570 C.ar  201  2SX201      0.0063
     11  N7       -42.8170  -27.8880    0.7570 N.ar  201  2SX201     -0.3604
     12  C6       -44.1070  -27.8090    0.4950 C.ar  201  2SX201      0.0468
     13  C3       -45.0130  -26.7680    0.1820 C.ar  201  2SX201     -0.0367
     14  C2       -46.3320  -27.1410   -0.0250 C.ar  201  2SX201     -0.0458
     15  H2       -44.1130  -31.8070    0.3810 H     201  2SX201      0.0382
     16  H3       -42.5860  -31.7620    0.7460 H     201  2SX201      0.0382
     17  H4       -46.1730  -30.3020    0.3360 H     201  2SX201      0.0635
     18  H5       -41.5290  -29.3400    1.1670 H     201  2SX201      0.0810
     19  H6       -42.3000  -27.2010    0.7860 H     201  2SX201      0.1653
     20  H7       -44.7460  -25.8780    0.1550 H     201  2SX201      0.0639
     21  H8       -46.9530  -26.4780   -0.2250 H     201  2SX201      0.0629
@<TRIPOS>UNITY_ATOM_ATTR
1 1
charge -1
@<TRIPOS>BOND
     1     9     8    1
     2    21    14    1
     3    14     8   ar
     4    14    13   ar
     5     8     7   ar
     6    20    13    1
     7    13    12   ar
     8     7    17    1
     9     7     6   ar
    10    15     4    1
    11    12     6   ar
    12    12    11   ar
    13     6     5   ar
    14    16     4    1
    15    11    19    1
    16    11    10   ar
    17     5    10   ar
    18     5     4    1
    19    10    18    1
    20     4     2    1
    21     2     1   ar
    22     2     3   ar
