@<TRIPOS>MOLECULE
/home/pku/3cl/gett_pdb/8B2T/8B2T_mol2/ligand/8B2T_OW1.pdb
 35 37 0 0 0
SMALL
GASTEIGER

@<TRIPOS>ATOM
      1  C1        18.2430  -20.5910  -30.7710 C.2   401  OW1401     -0.0032
      2  C2        17.5760  -19.9700  -29.8110 C.2   401  OW1401     -0.0049
      3  C3        18.0280  -19.9370  -28.3590 C.3   401  OW1401      0.1177
      4  C4        17.0350  -20.7630  -27.5360 C.3   401  OW1401      0.0353
      5  C5        17.4490  -20.9660  -26.0710 C.3   401  OW1401      0.0820
      6  C6        18.6920  -21.8140  -25.8020 C.3   401  OW1401      0.0326
      7  C7        18.3790  -22.6310  -24.5620 C.3   401  OW1401      0.1156
      8  N1        16.9270  -22.6030  -24.5050 N.am  401  OW1401     -0.2054
      9  C8        16.3660  -21.6680  -25.2790 C.2   401  OW1401      0.2410
     10  O1        15.1690  -21.4000  -25.3380 O.2   401  OW1401     -0.2734
     11  N2        18.1240  -18.5710  -27.8540 N.am  401  OW1401     -0.2013
     12  C9        19.2520  -18.0310  -27.3840 C.2   401  OW1401      0.2597
     13  O2        20.3070  -18.6530  -27.3040 O.2   401  OW1401     -0.2715
     14  C10       19.1570  -16.5790  -26.9100 C.3   401  OW1401      0.1535
     15  C11       19.8880  -15.6420  -27.8650 C.3   401  OW1401      0.0289
     16  C12       21.1000  -15.0890  -27.1390 C.3   401  OW1401      0.0220
     17  C13       21.1040  -15.6550  -25.7300 C.3   401  OW1401      0.0939
     18  N3        19.8460  -16.4150  -25.6280 N.am  401  OW1401     -0.2716
     19  C14       19.3300  -16.9430  -24.5000 C.2   401  OW1401      0.2458
     20  O3        18.2600  -17.5410  -24.5040 O.2   401  OW1401     -0.2730
     21  C15       20.0720  -16.7360  -23.1810 C.3   401  OW1401      0.1714
     22  N4        19.1790  -16.0650  -22.2490 N.am  401  OW1401     -0.1908
     23  C16       19.4460  -14.8540  -21.7850 C.2   401  OW1401      0.3371
     24  O4        20.4310  -14.2130  -22.0880 O.2   401  OW1401     -0.2642
     25  C17       18.4580  -14.2550  -20.7840 C.3   401  OW1401      0.4711
     26  F1        17.1990  -14.5970  -21.0100 F     401  OW1401     -0.1620
     27  F2        18.4950  -12.9320  -20.8330 F     401  OW1401     -0.1620
     28  F3        18.7440  -14.6490  -19.5530 F     401  OW1401     -0.1620
     29  C18       20.6690  -18.0360  -22.5940 C.3   401  OW1401      0.0269
     30  C19       21.4560  -17.6880  -21.3280 C.3   401  OW1401      0.0022
     31  C20       19.6070  -19.0770  -22.2200 C.3   401  OW1401      0.0022
     32  C21       21.6150  -18.6560  -23.6200 C.3   401  OW1401      0.0022
     33  C22       20.0020  -14.1650  -27.5720 C.3   401  OW1401      0.0037
     34  C23       20.3660  -13.2350  -28.7120 C.3   401  OW1401      0.0001
     35  C24       19.0270  -13.5440  -26.5930 C.3   401  OW1401      0.0001
@<TRIPOS>BOND
     1     1     2    2
     2     2     3    1
     3    34    33    1
     4     3    11    1
     5     3     4    1
     6    15    33    1
     7    15    16    1
     8    15    14    1
     9    11    12   am
    10    33    16    1
    11    33    35    1
    12     4     5    1
    13    12    13    2
    14    12    14    1
    15    16    17    1
    16    14    18    1
    17     5     6    1
    18     5     9    1
    19     6     7    1
    20    17    18    1
    21    18    19   am
    22    10     9    2
    23     9     8   am
    24     7     8    1
    25    20    19    2
    26    19    21    1
    27    32    29    1
    28    21    29    1
    29    21    22    1
    30    29    31    1
    31    29    30    1
    32    22    23   am
    33    24    23    2
    34    23    25    1
    35    26    25    1
    36    27    25    1
    37    25    28    1
