@<TRIPOS>MOLECULE
/home/pku/3cl/gett_pdb/5SQL/5SQL_mol2/ligand/5SQL_QSL.pdb
 29 31 0 0 0
SMALL
GASTEIGER

@<TRIPOS>ATOM
      1  C16      -46.7790  -29.4340    5.3220 C.ar  201  QSL201      0.0395
      2  C17      -51.3880  -30.9740    6.3730 C.3   201  QSL201      0.0712
      3  C15      -47.7430  -29.2830    4.3040 C.ar  201  QSL201     -0.0356
      4  C14      -47.0750  -29.2490    3.0970 C.ar  201  QSL201      0.0038
      5  C12      -45.5640  -29.4910    4.6820 C.ar  201  QSL201      0.1286
      6  C10      -44.4630  -29.7230    6.7070 C.2   201  QSL201      0.1048
      7  C04      -49.9620  -31.9560    7.9100 C.3   201  QSL201      0.0712
      8  C05      -49.7520  -30.9080    6.6280 C.3   201  QSL201      0.0103
      9  C06      -49.3170  -29.4990    7.0200 C.3   201  QSL201      0.0042
     10  C08      -46.7890  -29.5390    6.7360 C.3   201  QSL201      0.1848
     11  N07      -47.9790  -29.4980    7.5710 N.3   201  QSL201     -0.2852
     12  N09      -45.6240  -29.6850    7.3320 N.2   201  QSL201     -0.2434
     13  N11      -44.4170  -29.6320    5.3970 N.pl3 201  QSL201     -0.1859
     14  N13      -45.7780  -29.3730    3.3420 N.ar  201  QSL201     -0.3479
     15  O01      -52.4710  -32.5320    8.1750 O.2   201  QSL201     -0.1743
     16  O03      -51.1360  -33.5380    6.2480 O.2   201  QSL201     -0.1743
     17  S02      -51.3960  -32.4410    7.1840 S.O2  201  QSL201     -0.0303
     18 H172      -51.6140  -31.0560    5.3210 H     201  QSL201      0.0503
     19 H171      -51.9290  -30.1890    6.8870 H     201  QSL201      0.0503
     20 H151      -48.8140  -29.2040    4.4480 H     201  QSL201      0.0637
     21 H141      -47.5330  -29.1410    2.1320 H     201  QSL201      0.0807
     22 H101      -43.5600  -29.8350    7.2940 H     201  QSL201      0.1015
     23 H042      -49.2200  -32.7450    7.9500 H     201  QSL201      0.0503
     24 H041      -50.1240  -31.4480    8.8530 H     201  QSL201      0.0503
     25 H051      -49.1790  -31.3490    5.8240 H     201  QSL201      0.0344
     26 H062      -49.3910  -28.8170    6.1770 H     201  QSL201      0.0428
     27 H061      -49.9920  -29.1530    7.7800 H     201  QSL201      0.0428
     28 H071      -47.8830  -29.4690    8.5680 H     201  QSL201      0.1246
     29 H131      -45.0570  -29.3810    2.6580 H     201  QSL201      0.1666
@<TRIPOS>BOND
     1    21     4    1
     2    29    14    1
     3     4    14   ar
     4     4     3   ar
     5    14     5   ar
     6     3    20    1
     7     3     1   ar
     8     5     1   ar
     9     5    13    1
    10    18     2    1
    11     1    10    1
    12    13     6    1
    13    25     8    1
    14    26     9    1
    15    16    17    2
    16     2     8    1
    17     2    19    1
    18     2    17    1
    19     8     9    1
    20     8     7    1
    21     6    22    1
    22     6    12    2
    23    10    12    1
    24    10    11    1
    25     9    11    1
    26     9    27    1
    27    17     7    1
    28    17    15    2
    29    11    28    1
    30     7    23    1
    31     7    24    1
