XCK
  -OEChem-02242320043D

 69 70  0     1  0  0  0  0  0999 V2000
   -0.7400    0.5830   -0.3180 C   0  0  0  0  0  0  0  0  0  0  0  0
    1.6440    0.9550    0.0230 C   0  0  1  0  0  0  0  0  0  0  0  0
    1.8030    2.4770    0.0200 C   0  0  0  0  0  0  0  0  0  0  0  0
    0.8200    3.0900   -0.9800 C   0  0  0  0  0  0  0  0  0  0  0  0
    0.8910    4.6160   -0.8940 C   0  0  0  0  0  0  0  0  0  0  0  0
    1.1870    2.6420   -2.3960 C   0  0  0  0  0  0  0  0  0  0  0  0
    2.6930    0.3430    0.9150 C   0  0  0  0  0  0  0  0  0  0  0  0
    5.0200   -0.0630    1.5140 C   0  0  1  0  0  0  0  0  0  0  0  0
    6.3070   -0.2770    0.7150 C   0  0  0  0  0  0  0  0  0  0  0  0
    6.0420   -1.2640   -0.4240 C   0  0  1  0  0  0  0  0  0  0  0  0
    7.3120   -1.5290   -1.2020 C   0  0  0  0  0  0  0  0  0  0  0  0
    6.3260   -3.6040   -0.8660 C   0  0  0  0  0  0  0  0  0  0  0  0
    5.6480   -2.6490    0.1410 C   0  0  0  0  0  0  0  0  0  0  0  0
    5.2960    0.8600    2.6720 C   0  0  0  0  0  0  0  0  0  0  0  0
   -3.0490    0.2530   -0.8230 C   0  0  0  0  0  0  0  0  0  0  0  0
   -4.3510   -0.1410   -0.1220 C   0  0  0  0  0  0  0  0  0  0  0  0
   -4.2020   -1.5380    0.4820 C   0  0  0  0  0  0  0  0  0  0  0  0
   -4.6560    0.8660    0.9890 C   0  0  0  0  0  0  0  0  0  0  0  0
   -7.0880   -0.6700   -0.3650 C   0  0  0  0  0  0  0  0  0  0  0  0
   -6.9510   -0.8620    1.0050 C   0  0  0  0  0  0  0  0  0  0  0  0
   -8.0360   -1.2690    1.7550 C   0  0  0  0  0  0  0  0  0  0  0  0
   -9.2590   -1.4870    1.1460 C   0  0  0  0  0  0  0  0  0  0  0  0
   -9.3990   -1.2970   -0.2170 C   0  0  0  0  0  0  0  0  0  0  0  0
   -8.3180   -0.8900   -0.9740 C   0  0  0  0  0  0  0  0  0  0  0  0
    0.3120    0.6040    0.5240 N   0  0  0  0  0  0  0  0  0  0  0  0
    4.0000    0.5330    0.6470 N   0  0  0  0  0  0  0  0  0  0  0  0
    7.4490   -2.8460   -1.4300 N   0  0  0  0  0  0  0  0  0  0  0  0
    4.6670    1.9700    2.7700 N   0  0  0  0  0  0  0  0  0  0  0  0
   -0.5840    0.8550   -1.4920 O   0  0  0  0  0  0  0  0  0  0  0  0
    8.0940   -0.6760   -1.5660 O   0  0  0  0  0  0  0  0  0  0  0  0
    2.3610   -0.3220    1.8740 O   0  0  0  0  0  0  0  0  0  0  0  0
   -1.9620    0.2550    0.1400 O   0  0  0  0  0  0  0  0  0  0  0  0
   -5.7080   -0.1440   -1.3250 S   0  0  0  0  0  0  0  0  0  0  0  0
    1.7630    0.5750   -0.9910 H   0  0  0  0  0  0  0  0  0  0  0  0
    1.5970    2.8660    1.0170 H   0  0  0  0  0  0  0  0  0  0  0  0
    2.8220    2.7350   -0.2670 H   0  0  0  0  0  0  0  0  0  0  0  0
   -0.1910    2.7590   -0.7440 H   0  0  0  0  0  0  0  0  0  0  0  0
    1.9030    4.9470   -1.1290 H   0  0  0  0  0  0  0  0  0  0  0  0
    0.1910    5.0530   -1.6060 H   0  0  0  0  0  0  0  0  0  0  0  0
    0.6300    4.9360    0.1150 H   0  0  0  0  0  0  0  0  0  0  0  0
    1.1370    1.5540   -2.4570 H   0  0  0  0  0  0  0  0  0  0  0  0
    0.4870    3.0780   -3.1080 H   0  0  0  0  0  0  0  0  0  0  0  0
    2.1990    2.9720   -2.6310 H   0  0  0  0  0  0  0  0  0  0  0  0
    4.6620   -1.0210    1.8900 H   0  0  0  0  0  0  0  0  0  0  0  0
    6.6400    0.6750    0.3000 H   0  0  0  0  0  0  0  0  0  0  0  0
    7.0800   -0.6780    1.3710 H   0  0  0  0  0  0  0  0  0  0  0  0
    5.2610   -0.8850   -1.0830 H   0  0  0  0  0  0  0  0  0  0  0  0
    6.6910   -4.4950   -0.3540 H   0  0  0  0  0  0  0  0  0  0  0  0
    5.6240   -3.8830   -1.6520 H   0  0  0  0  0  0  0  0  0  0  0  0
    6.0510   -2.7900    1.1440 H   0  0  0  0  0  0  0  0  0  0  0  0
    4.5660   -2.7790    0.1350 H   0  0  0  0  0  0  0  0  0  0  0  0
    6.0250    0.5850    3.4200 H   0  0  0  0  0  0  0  0  0  0  0  0
   -2.8310   -0.4640   -1.6140 H   0  0  0  0  0  0  0  0  0  0  0  0
   -3.1550    1.2490   -1.2530 H   0  0  0  0  0  0  0  0  0  0  0  0
   -3.5390   -1.4920    1.3460 H   0  0  0  0  0  0  0  0  0  0  0  0
   -5.1800   -1.9050    0.7950 H   0  0  0  0  0  0  0  0  0  0  0  0
   -3.7820   -2.2140   -0.2630 H   0  0  0  0  0  0  0  0  0  0  0  0
   -4.4890    1.8770    0.6190 H   0  0  0  0  0  0  0  0  0  0  0  0
   -5.6960    0.7600    1.2990 H   0  0  0  0  0  0  0  0  0  0  0  0
   -4.0030    0.6770    1.8400 H   0  0  0  0  0  0  0  0  0  0  0  0
   -5.9970   -0.6930    1.4820 H   0  0  0  0  0  0  0  0  0  0  0  0
   -7.9310   -1.4180    2.8200 H   0  0  0  0  0  0  0  0  0  0  0  0
  -10.1050   -1.8060    1.7350 H   0  0  0  0  0  0  0  0  0  0  0  0
  -10.3540   -1.4680   -0.6900 H   0  0  0  0  0  0  0  0  0  0  0  0
   -8.4280   -0.7410   -2.0380 H   0  0  0  0  0  0  0  0  0  0  0  0
    0.1880    0.3880    1.4610 H   0  0  0  0  0  0  0  0  0  0  0  0
    4.2660    1.0640   -0.1200 H   0  0  0  0  0  0  0  0  0  0  0  0
    8.1930   -3.2450   -1.9070 H   0  0  0  0  0  0  0  0  0  0  0  0
    4.8440    2.5640    3.5160 H   0  0  0  0  0  0  0  0  0  0  0  0
 19 33  1  0  0  0  0
 16 33  1  0  0  0  0
 11 30  2  0  0  0  0
 19 24  2  0  0  0  0
 19 20  1  0  0  0  0
 23 24  1  0  0  0  0
 20 21  2  0  0  0  0
 22 23  2  0  0  0  0
 21 22  1  0  0  0  0
 11 27  1  0  0  0  0
 10 11  1  0  0  0  0
 16 17  1  0  0  0  0
 12 27  1  0  0  0  0
 15 16  1  0  0  0  0
 16 18  1  0  0  0  0
 15 32  1  0  0  0  0
  1 29  2  0  0  0  0
  9 10  1  0  0  0  0
 10 13  1  0  0  0  0
  1 32  1  0  0  0  0
  1 25  1  0  0  0  0
 12 13  1  0  0  0  0
  8  9  1  0  0  0  0
  4  5  1  0  0  0  0
  2 25  1  0  0  0  0
  2  7  1  0  0  0  0
  2  3  1  0  0  0  0
  8 26  1  0  0  0  0
  7 26  1  0  0  0  0
  8 14  1  0  0  0  0
  7 31  2  0  0  0  0
  3  4  1  0  0  0  0
  4  6  1  0  0  0  0
 14 28  2  0  0  0  0
  2 34  1  0  0  0  0
  3 35  1  0  0  0  0
  3 36  1  0  0  0  0
  4 37  1  0  0  0  0
  5 38  1  0  0  0  0
  5 39  1  0  0  0  0
  5 40  1  0  0  0  0
  6 41  1  0  0  0  0
  6 42  1  0  0  0  0
  6 43  1  0  0  0  0
  8 44  1  0  0  0  0
  9 45  1  0  0  0  0
  9 46  1  0  0  0  0
 10 47  1  0  0  0  0
 12 48  1  0  0  0  0
 12 49  1  0  0  0  0
 13 50  1  0  0  0  0
 13 51  1  0  0  0  0
 14 52  1  0  0  0  0
 15 53  1  0  0  0  0
 15 54  1  0  0  0  0
 17 55  1  0  0  0  0
 17 56  1  0  0  0  0
 17 57  1  0  0  0  0
 18 58  1  0  0  0  0
 18 59  1  0  0  0  0
 18 60  1  0  0  0  0
 20 61  1  0  0  0  0
 21 62  1  0  0  0  0
 22 63  1  0  0  0  0
 23 64  1  0  0  0  0
 24 65  1  0  0  0  0
 25 66  1  0  0  0  0
 26 67  1  0  0  0  0
 27 68  1  0  0  0  0
 28 69  1  0  0  0  0
M  END
> <OPENEYE_ISO_SMILES>
[H]/N=C/[C@H](C[C@@H]1CCNC1=O)NC(=O)[C@H](CC(C)C)NC(=O)OCC(C)(C)Sc2ccccc2

> <OPENEYE_INCHI>
InChI=1S/C24H36N4O4S/c1-16(2)12-20(22(30)27-18(14-25)13-17-10-11-26-21(17)29)28-23(31)32-15-24(3,4)33-19-8-6-5-7-9-19/h5-9,14,16-18,20,25H,10-13,15H2,1-4H3,(H,26,29)(H,27,30)(H,28,31)/b25-14+/t17-,18-,20-/m0/s1

> <OPENEYE_INCHIKEY>
ZIDTZUSIKUZLIR-LVPXVQOHSA-N

> <FORMULA>
C24H36N4O4S

$$$$
