LJK
  -OEChem-02242320033D

 31 31  0     0  0  0  0  0  0999 V2000
    0.9710    0.4410    0.0040 N   0  0  0  0  0  0  0  0  0  0  0  0
   -1.8750    1.2790    0.0020 N   0  0  0  0  0  0  0  0  0  0  0  0
    2.6320   -0.8560    1.2450 C   0  0  0  0  0  0  0  0  0  0  0  0
    2.6270   -0.8450   -1.2540 C   0  0  0  0  0  0  0  0  0  0  0  0
   -0.0290   -0.4630    0.0030 C   0  0  0  0  0  0  0  0  0  0  0  0
   -1.4290   -0.0120    0.0020 C   0  0  0  0  0  0  0  0  0  0  0  0
   -2.5590   -0.8110   -0.0010 C   0  0  0  0  0  0  0  0  0  0  0  0
   -5.0980   -0.3040   -0.0030 C   0  0  0  0  0  0  0  0  0  0  0  0
    4.7490    0.7400   -0.0020 C   0  0  0  0  0  0  0  0  0  0  0  0
    3.2930    1.2090    0.0030 C   0  0  0  0  0  0  0  0  0  0  0  0
    2.3650   -0.0080   -0.0000 C   0  0  0  0  0  0  0  0  0  0  0  0
    0.2280   -1.6520    0.0020 O   0  0  0  0  0  0  0  0  0  0  0  0
   -3.6390    0.0750   -0.0010 C   0  0  0  0  0  0  0  0  0  0  0  0
   -3.1590    1.2920    0.0010 N   0  0  0  0  0  0  0  0  0  0  0  0
    0.7670    1.3890    0.0050 H   0  0  0  0  0  0  0  0  0  0  0  0
   -1.3080    2.0660    0.0080 H   0  0  0  0  0  0  0  0  0  0  0  0
    2.4460   -0.2590    2.1380 H   0  0  0  0  0  0  0  0  0  0  0  0
    1.9710   -1.7230    1.2420 H   0  0  0  0  0  0  0  0  0  0  0  0
    3.6700   -1.1900    1.2410 H   0  0  0  0  0  0  0  0  0  0  0  0
    1.9660   -1.7120   -1.2560 H   0  0  0  0  0  0  0  0  0  0  0  0
    2.4370   -0.2410   -2.1410 H   0  0  0  0  0  0  0  0  0  0  0  0
    3.6640   -1.1800   -1.2570 H   0  0  0  0  0  0  0  0  0  0  0  0
   -2.5980   -1.8910   -0.0030 H   0  0  0  0  0  0  0  0  0  0  0  0
   -5.4500   -0.3960    1.0240 H   0  0  0  0  0  0  0  0  0  0  0  0
   -5.6730    0.4670   -0.5170 H   0  0  0  0  0  0  0  0  0  0  0  0
   -5.2250   -1.2560   -0.5180 H   0  0  0  0  0  0  0  0  0  0  0  0
    4.9360    0.1430   -0.8950 H   0  0  0  0  0  0  0  0  0  0  0  0
    5.4100    1.6070    0.0000 H   0  0  0  0  0  0  0  0  0  0  0  0
    4.9390    0.1350    0.8850 H   0  0  0  0  0  0  0  0  0  0  0  0
    3.1060    1.8050    0.8960 H   0  0  0  0  0  0  0  0  0  0  0  0
    3.1030    1.8130   -0.8840 H   0  0  0  0  0  0  0  0  0  0  0  0
  3 11  1  0  0  0  0
 10 11  1  0  0  0  0
  4 11  1  0  0  0  0
  1 11  1  0  0  0  0
  9 10  1  0  0  0  0
  1  5  1  0  0  0  0
  2 14  1  0  0  0  0
  2  6  1  0  0  0  0
  5 12  2  0  0  0  0
  5  6  1  0  0  0  0
 13 14  2  0  0  0  0
  6  7  2  0  0  0  0
  7 13  1  0  0  0  0
  8 13  1  0  0  0  0
  1 15  1  0  0  0  0
  2 16  1  0  0  0  0
  3 17  1  0  0  0  0
  3 18  1  0  0  0  0
  3 19  1  0  0  0  0
  4 20  1  0  0  0  0
  4 21  1  0  0  0  0
  4 22  1  0  0  0  0
  7 23  1  0  0  0  0
  8 24  1  0  0  0  0
  8 25  1  0  0  0  0
  8 26  1  0  0  0  0
  9 27  1  0  0  0  0
  9 28  1  0  0  0  0
  9 29  1  0  0  0  0
 10 30  1  0  0  0  0
 10 31  1  0  0  0  0
M  END
> <OPENEYE_ISO_SMILES>
CCC(C)(C)NC(=O)c1cc(n[nH]1)C

> <OPENEYE_INCHI>
InChI=1S/C10H17N3O/c1-5-10(3,4)11-9(14)8-6-7(2)12-13-8/h6H,5H2,1-4H3,(H,11,14)(H,12,13)

> <OPENEYE_INCHIKEY>
ZDAUOJUKQPYKAC-UHFFFAOYSA-N

> <FORMULA>
C10H17N3O

$$$$
