HE9
  -OEChem-02242320023D

 20 20  0     0  0  0  0  0  0999 V2000
   -0.4930   -0.0190    0.0040 C   0  0  0  0  0  0  0  0  0  0  0  0
   -0.0570   -1.3470    0.0220 C   0  0  0  0  0  0  0  0  0  0  0  0
    2.2200   -0.5970    0.0090 C   0  0  0  0  0  0  0  0  0  0  0  0
    0.4420    1.0200   -0.0110 C   0  0  0  0  0  0  0  0  0  0  0  0
    1.2920   -1.6290    0.0240 C   0  0  0  0  0  0  0  0  0  0  0  0
    1.7930    0.7300   -0.0090 C   0  0  0  0  0  0  0  0  0  0  0  0
    2.7050    1.7380   -0.0230 O   0  0  0  0  0  0  0  0  0  0  0  0
    3.5480   -0.8810    0.0120 O   0  0  0  0  0  0  0  0  0  0  0  0
   -1.9360    0.2850   -0.0040 C   0  0  0  0  0  0  0  0  0  0  0  0
   -2.8360   -0.7170    0.0050 O   0  0  0  0  0  0  0  0  0  0  0  0
   -2.3130    1.4400   -0.0190 O   0  0  0  0  0  0  0  0  0  0  0  0
   -4.2390   -0.3440   -0.0040 C   0  0  0  0  0  0  0  0  0  0  0  0
   -0.7770   -2.1510    0.0340 H   0  0  0  0  0  0  0  0  0  0  0  0
    0.1100    2.0480   -0.0250 H   0  0  0  0  0  0  0  0  0  0  0  0
    1.6270   -2.6560    0.0380 H   0  0  0  0  0  0  0  0  0  0  0  0
    2.9700    2.0410    0.8560 H   0  0  0  0  0  0  0  0  0  0  0  0
    3.9320   -0.9750   -0.8710 H   0  0  0  0  0  0  0  0  0  0  0  0
   -4.4610    0.2570    0.8780 H   0  0  0  0  0  0  0  0  0  0  0  0
   -4.4550    0.2350   -0.9020 H   0  0  0  0  0  0  0  0  0  0  0  0
   -4.8540   -1.2430    0.0050 H   0  0  0  0  0  0  0  0  0  0  0  0
  9 11  2  0  0  0  0
  9 10  1  0  0  0  0
  1  9  1  0  0  0  0
 10 12  1  0  0  0  0
  1  4  2  0  0  0  0
  4  6  1  0  0  0  0
  6  7  1  0  0  0  0
  1  2  1  0  0  0  0
  3  6  2  0  0  0  0
  2  5  2  0  0  0  0
  3  5  1  0  0  0  0
  3  8  1  0  0  0  0
  2 13  1  0  0  0  0
  4 14  1  0  0  0  0
  5 15  1  0  0  0  0
  7 16  1  0  0  0  0
  8 17  1  0  0  0  0
 12 18  1  0  0  0  0
 12 19  1  0  0  0  0
 12 20  1  0  0  0  0
M  END
> <OPENEYE_ISO_SMILES>
COC(=O)c1ccc(c(c1)O)O

> <OPENEYE_INCHI>
InChI=1S/C8H8O4/c1-12-8(11)5-2-3-6(9)7(10)4-5/h2-4,9-10H,1H3

> <OPENEYE_INCHIKEY>
CUFLZUDASVUNOE-UHFFFAOYSA-N

> <FORMULA>
C8H8O4

$$$$
