WW1
  -OEChem-02242320043D

 31 33  0     1  0  0  0  0  0999 V2000
    5.4620    0.4950   -0.1510 C   0  0  0  0  0  0  0  0  0  0  0  0
    3.2980    0.1700   -0.0790 N   0  0  0  0  0  0  0  0  0  0  0  0
   -3.3120    0.2950   -0.0860 C   0  0  0  0  0  0  0  0  0  0  0  0
   -4.7650   -1.3290    0.9050 C   0  0  0  0  0  0  0  0  0  0  0  0
   -5.3400   -0.3320   -1.1940 C   0  0  0  0  0  0  0  0  0  0  0  0
   -2.0570    1.9980    1.2090 C   0  0  0  0  0  0  0  0  0  0  0  0
   -2.0490    1.1170   -0.0420 C   0  0  1  0  0  0  0  0  0  0  0  0
   -0.8360    0.1850   -0.0020 C   0  0  0  0  0  0  0  0  0  0  0  0
    1.9520   -0.0540   -0.0380 C   0  0  0  0  0  0  0  0  0  0  0  0
    3.8860   -1.0650   -0.0050 C   0  0  0  0  0  0  0  0  0  0  0  0
   -3.6030   -0.5800    0.9430 C   0  0  0  0  0  0  0  0  0  0  0  0
   -5.6340   -1.2030   -0.1620 C   0  0  0  0  0  0  0  0  0  0  0  0
   -4.1810    0.4220   -1.1540 C   0  0  0  0  0  0  0  0  0  0  0  0
    1.7790   -1.3520    0.0540 N   0  0  0  0  0  0  0  0  0  0  0  0
    2.9200   -1.9470    0.0740 N   0  0  0  0  0  0  0  0  0  0  0  0
    5.2470   -0.8540   -0.0450 N   0  0  0  0  0  0  0  0  0  0  0  0
    4.3240    1.1130   -0.1720 N   0  0  0  0  0  0  0  0  0  0  0  0
    0.6850    1.1690   -0.0970 S   0  0  0  0  0  0  0  0  0  0  0  0
    6.4300    0.9700   -0.2040 H   0  0  0  0  0  0  0  0  0  0  0  0
   -4.9950   -2.0100    1.7110 H   0  0  0  0  0  0  0  0  0  0  0  0
   -6.0190   -0.2330   -2.0280 H   0  0  0  0  0  0  0  0  0  0  0  0
   -1.1440    2.5920    1.2400 H   0  0  0  0  0  0  0  0  0  0  0  0
   -2.9220    2.6620    1.1790 H   0  0  0  0  0  0  0  0  0  0  0  0
   -2.1130    1.3680    2.0960 H   0  0  0  0  0  0  0  0  0  0  0  0
   -1.9940    1.7470   -0.9300 H   0  0  0  0  0  0  0  0  0  0  0  0
   -0.8440   -0.3820    0.9290 H   0  0  0  0  0  0  0  0  0  0  0  0
   -0.8780   -0.5030   -0.8460 H   0  0  0  0  0  0  0  0  0  0  0  0
   -2.9240   -0.6790    1.7760 H   0  0  0  0  0  0  0  0  0  0  0  0
   -6.5410   -1.7880   -0.1920 H   0  0  0  0  0  0  0  0  0  0  0  0
   -3.9560    1.1090   -1.9550 H   0  0  0  0  0  0  0  0  0  0  0  0
    5.9320   -1.5390   -0.0050 H   0  0  0  0  0  0  0  0  0  0  0  0
  4 12  2  0  0  0  0
  4 11  1  0  0  0  0
  5 12  1  0  0  0  0
  3 11  2  0  0  0  0
  5 13  2  0  0  0  0
  3 13  1  0  0  0  0
  3  7  1  0  0  0  0
  6  7  1  0  0  0  0
  7  8  1  0  0  0  0
  8 18  1  0  0  0  0
  9 18  1  0  0  0  0
  1 17  2  0  0  0  0
  2 17  1  0  0  0  0
  1 16  1  0  0  0  0
  2  9  1  0  0  0  0
  2 10  1  0  0  0  0
  9 14  2  0  0  0  0
 14 15  1  0  0  0  0
 10 16  1  0  0  0  0
 10 15  2  0  0  0  0
  1 19  1  0  0  0  0
  4 20  1  0  0  0  0
  5 21  1  0  0  0  0
  6 22  1  0  0  0  0
  6 23  1  0  0  0  0
  6 24  1  0  0  0  0
  7 25  1  0  0  0  0
  8 26  1  0  0  0  0
  8 27  1  0  0  0  0
 11 28  1  0  0  0  0
 12 29  1  0  0  0  0
 13 30  1  0  0  0  0
 16 31  1  0  0  0  0
M  END
> <OPENEYE_ISO_SMILES>
C[C@@H](CSc1nnc2n1nc[nH]2)c3ccccc3

> <OPENEYE_INCHI>
InChI=1S/C12H13N5S/c1-9(10-5-3-2-4-6-10)7-18-12-16-15-11-13-8-14-17(11)12/h2-6,8-9H,7H2,1H3,(H,13,14,15)/t9-/m0/s1

> <OPENEYE_INCHIKEY>
MWDGBNUBPZOQNW-VIFPVBQESA-N

> <FORMULA>
C12H13N5S

$$$$
