@<TRIPOS>MOLECULE
/home/pku/3cl/gett_pdb/7D3I/7D3I_mol2/ligand/7D3I_GQU.pdb
 33 36 0 0 0
SMALL
GASTEIGER

@<TRIPOS>ATOM
      1  C10      -15.8740  -25.9860    0.1340 C.3   401  GQU401      0.1534
      2  C15      -13.1850  -28.9290    2.4240 C.3   401  GQU401      0.2036
      3  C17      -12.4430  -26.6100    3.2830 C.3   401  GQU401      0.0335
      4  C20      -10.1230  -23.8440    2.3570 C.3   401  GQU401      0.1156
      5  C22      -11.5750  -24.3720    4.0770 C.2   401  GQU401      0.2410
      6  C24      -16.0830  -22.2230   -0.2480 C.3   401  GQU401      0.0900
      7  C26      -15.2390  -20.0520   -1.1090 C.ar  401  GQU401     -0.0172
      8  C28      -15.0570  -17.7230   -0.5160 C.ar  401  GQU401      0.1421
      9  O01      -15.0440  -23.6600    1.3430 O.2   401  GQU401     -0.2748
     10  C02      -15.6600  -23.5770    0.2910 C.2   401  GQU401      0.2263
     11  N03      -15.9880  -24.6420   -0.4350 N.am  401  GQU401     -0.2729
     12  C04      -16.5050  -24.6320   -1.8100 C.3   401  GQU401      0.0938
     13  C05      -16.9540  -26.0500   -2.0490 C.3   401  GQU401      0.0219
     14  C06      -18.4630  -26.1360   -1.8680 C.3   401  GQU401      0.0018
     15  C07      -18.7380  -27.1210   -0.7320 C.3   401  GQU401      0.0001
     16  C08      -17.4170  -27.7910   -0.4180 C.3   401  GQU401      0.0022
     17  C09      -16.3110  -26.9080   -0.9800 C.3   401  GQU401      0.0288
     18  C11      -14.4760  -26.3490    0.5170 C.2   401  GQU401      0.2595
     19  O12      -13.5460  -26.0250   -0.2020 O.2   401  GQU401     -0.2716
     20  N13      -14.3280  -26.9510    1.6920 N.am  401  GQU401     -0.2031
     21  C14      -13.0290  -27.4350    2.1240 C.3   401  GQU401      0.1287
     22  O16      -11.9140  -29.5010    2.7330 O.3   401  GQU401     -0.2185
     23  C18      -12.0940  -25.1600    2.9040 C.3   401  GQU401      0.0818
     24  C19      -10.9670  -25.0400    1.8790 C.3   401  GQU401      0.0326
     25  N21      -10.5190  -23.6330    3.7410 N.am  401  GQU401     -0.2054
     26  O23      -12.1010  -24.3930    5.1740 O.2   401  GQU401     -0.2734
     27  C25      -14.8720  -21.4960   -0.8080 C.3   401  GQU401      0.0361
     28  C27      -14.7490  -19.0550   -0.2820 C.ar  401  GQU401      0.0255
     29  F29      -14.5500  -16.7850    0.2980 F     401  GQU401     -0.2041
     30  C30      -15.8400  -17.3650   -1.6020 C.ar  401  GQU401      0.0592
     31  C31      -16.3600  -18.3640   -2.4110 C.ar  401  GQU401      0.1421
     32  F32      -17.1260  -18.0150   -3.4520 F     401  GQU401     -0.2041
     33  C33      -16.0610  -19.7110   -2.1780 C.ar  401  GQU401      0.0255
@<TRIPOS>BOND
     1    32    31    1
     2    31    33   ar
     3    31    30   ar
     4    33     7   ar
     5    13    14    1
     6    13    12    1
     7    13    17    1
     8    14    15    1
     9    12    11    1
    10    30     8   ar
    11     7    27    1
    12     7    28   ar
    13    17    16    1
    14    17     1    1
    15    27     6    1
    16    15    16    1
    17     8    28   ar
    18     8    29    1
    19    11     1    1
    20    11    10   am
    21     6    10    1
    22    19    18    2
    23     1    18    1
    24    10     9    2
    25    18    20   am
    26    20    21    1
    27    24     4    1
    28    24    23    1
    29    21     2    1
    30    21     3    1
    31     4    25    1
    32     2    22    1
    33    23     3    1
    34    23     5    1
    35    25     5   am
    36     5    26    2
