@<TRIPOS>MOLECULE
/home/pku/3cl/gett_pdb/7VLP/7VLP_mol2/ligand/7VLP_4WI.pdb
 35 37 0 0 0
SMALL
GASTEIGER

@<TRIPOS>ATOM
      1  C8       -16.0760   -8.0110    3.6620 C.2   401  4WI401      0.2410
      2  C3       -16.9130  -12.2410    6.1470 C.2   401  4WI401      0.1171
      3  C1       -19.3220  -11.8880    3.5490 C.2   401  4WI401      0.2597
      4  C13      -20.8130  -10.0450    1.7170 C.2   401  4WI401      0.2458
      5  C21      -23.3000   -8.4640    0.1390 C.2   401  4WI401      0.3371
      6  C6       -15.6970   -9.9930    2.5630 C.3   401  4WI401      0.0326
      7  C7       -15.3740   -8.8180    1.6410 C.3   401  4WI401      0.1156
      8  C10      -21.8030  -12.3350    1.3910 C.3   401  4WI401      0.0939
      9  C5       -16.6350   -9.3150    3.5550 C.3   401  4WI401      0.0821
     10  C9       -20.7220  -11.6930    3.5050 C.3   401  4WI401      0.1535
     11  C11      -22.1790  -13.3920    2.4300 C.3   401  4WI401      0.0220
     12  C12      -21.4810  -13.0100    3.7450 C.3   401  4WI401      0.0289
     13  C18      -23.0170  -12.9990    3.6520 C.3   401  4WI401      0.0037
     14  C19      -23.7490  -14.1270    4.3840 C.3   401  4WI401      0.0001
     15  C20      -23.7980  -11.6730    3.6740 C.3   401  4WI401      0.0001
     16  C16      -20.4970   -9.3170   -2.0710 C.3   401  4WI401      0.0022
     17  C17      -19.1690  -10.8530   -0.6300 C.3   401  4WI401      0.0022
     18  C23      -19.0980   -8.3850   -0.2340 C.3   401  4WI401      0.0022
     19  C4       -16.6160  -10.0740    4.9070 C.3   401  4WI401      0.0371
     20  C2       -17.2300  -11.4950    4.8260 C.3   401  4WI401      0.1386
     21  C14      -21.2240   -9.7080    0.2740 C.3   401  4WI401      0.1714
     22  C22      -24.0070   -7.1100    0.3360 C.3   401  4WI401      0.4711
     23  C15      -19.9950   -9.5600   -0.6420 C.3   401  4WI401      0.0269
     24  N5       -15.7870  -12.9440    6.1730 N.2   401  4WI401     -0.1496
     25  N2       -15.3240   -7.6940    2.6110 N.am  401  4WI401     -0.2054
     26  N3       -21.1190  -11.2640    2.1350 N.am  401  4WI401     -0.2716
     27  N1       -18.6940  -11.4010    4.6440 N.am  401  4WI401     -0.1996
     28  N4       -21.9930   -8.4650    0.3690 N.am  401  4WI401     -0.1908
     29  O1       -16.2310   -7.2490    4.6150 O.2   401  4WI401     -0.2734
     30  O2       -18.7050  -12.4130    2.6170 O.2   401  4WI401     -0.2715
     31  O3       -20.2250   -9.2440    2.4360 O.2   401  4WI401     -0.2730
     32  O4       -23.9230   -9.4600   -0.2500 O.2   401  4WI401     -0.2642
     33  F1       -23.6760   -6.3210   -0.5440 F     401  4WI401     -0.1620
     34  F2       -25.2970   -7.3200    0.3400 F     401  4WI401     -0.1620
     35  F3       -23.6920   -6.5810    1.4550 F     401  4WI401     -0.1620
@<TRIPOS>BOND
     1    16    23    1
     2    23    17    1
     3    23    18    1
     4    23    21    1
     5    33    22    1
     6    32     5    2
     7     5    22    1
     8     5    28   am
     9    21    28    1
    10    21     4    1
    11    22    34    1
    12    22    35    1
    13     8    26    1
    14     8    11    1
    15     7     6    1
    16     7    25    1
    17     4    26   am
    18     4    31    2
    19    26    10    1
    20    11    13    1
    21    11    12    1
    22     6     9    1
    23    25     1   am
    24    30     3    2
    25    10     3    1
    26    10    12    1
    27     3    27   am
    28     9     1    1
    29     9    19    1
    30    13    15    1
    31    13    12    1
    32    13    14    1
    33     1    29    2
    34    27    20    1
    35    20    19    1
    36    20     2    1
    37     2    24    2
