@<TRIPOS>MOLECULE
/home/pku/3cl/gett_pdb/5WEJ/5WEJ_mol2/ligand/5WEJ_V45.pdb
 24 25 0 0 0
SMALL
GASTEIGER

@<TRIPOS>ATOM
      1  C06       10.9230    8.6600   -8.1510 C.ar  201  V45201      0.2034
      2  C08        9.7260    9.6770   -9.8880 C.ar  201  V45201      0.4224
      3  C10        9.0430   11.8580   -8.6910 C.3   201  V45201      0.1692
      4  C11        9.0930   12.5560   -7.3440 C.3   201  V45201      0.0322
      5  C12        8.2060   11.9610   -6.2540 C.3   201  V45201      0.0024
      6  C13        6.7360   11.9040   -6.6490 C.3   201  V45201      0.0001
      7  C14        8.3950   12.7800   -4.9680 C.3   201  V45201      0.0001
      8  C15        9.8120   12.7540   -9.6580 C.2   201  V45201      0.2622
      9  C17        9.7240   14.4120  -11.5220 C.3   201  V45201      0.1287
     10  C18        9.3500   13.9300  -12.9280 C.3   201  V45201      0.0335
     11  C19        9.7200   12.4770  -13.2640 C.3   201  V45201      0.0818
     12  C20       11.3440   12.1820  -13.0680 C.3   201  V45201      0.0326
     13  C21       11.5870   11.1360  -13.8150 C.3   201  V45201      0.1156
     14  C23        9.4730   12.1940  -14.5410 C.2   201  V45201      0.2410
     15  C25        9.3060   15.8820  -11.3690 C.3   201  V45201      0.2036
     16  C28       10.2670    9.8730   -7.6030 C.ar  201  V45201      0.1225
     17  N09        9.6420   10.5320   -8.6860 N.ar  201  V45201     -0.2538
     18  N16        9.0360   13.5610  -10.5660 N.am  201  V45201     -0.2029
     19  N22       10.6390   11.2700  -15.0360 N.am  201  V45201     -0.2054
     20  O07       10.5770    8.5620   -9.5260 O.2   201  V45201     -0.4035
     21  O24        8.5610   12.5110  -15.2080 O.2   201  V45201     -0.2734
     22  O26        9.8890   16.3700  -10.1950 O.3   201  V45201     -0.2185
     23  O27       11.0070   12.8170   -9.6400 O.2   201  V45201     -0.2713
     24  O29        9.2230    9.8830  -10.9760 O.2   201  V45201     -0.2226
@<TRIPOS>BOND
     1    21    14    2
     2    19    14   am
     3    19    13    1
     4    14    11    1
     5    13    12    1
     6    11    12    1
     7    11    10    1
     8    10     9    1
     9     9    15    1
    10     9    18    1
    11    15    22    1
    12    24     2    2
    13    18     8   am
    14     2    20   ar
    15     2    17   ar
    16     8    23    2
    17     8     3    1
    18    20     1   ar
    19     3    17    1
    20     3     4    1
    21    17    16   ar
    22     1    16   ar
    23     4     5    1
    24     6     5    1
    25     5     7    1
