YVJ
  -OEChem-02242320043D

 76 78  0     1  0  0  0  0  0999 V2000
   -4.1000   -3.7810   -0.3370 C   0  0  0  0  0  0  0  0  0  0  0  0
   -4.6480   -0.1410    0.2710 C   0  0  0  0  0  0  0  0  0  0  0  0
   -5.7640    1.7040   -0.9540 C   0  0  0  0  0  0  0  0  0  0  0  0
   -7.1110    3.4150   -1.9220 C   0  0  0  0  0  0  0  0  0  0  0  0
   -7.0310    4.4800   -3.0170 C   0  0  0  0  0  0  0  0  0  0  0  0
   -5.0650   -5.4140    1.0040 C   0  0  0  0  0  0  0  0  0  0  0  0
    2.9310    4.6200    1.3810 C   0  0  0  0  0  0  0  0  0  0  0  0
    2.2320    2.8410   -0.0610 C   0  0  0  0  0  0  0  0  0  0  0  0
    0.7500    3.6630    1.6300 C   0  0  0  0  0  0  0  0  0  0  0  0
    2.5410    0.2730    1.2270 C   0  0  0  0  0  0  0  0  0  0  0  0
    0.1330    0.5060    0.9350 C   0  0  1  0  0  0  0  0  0  0  0  0
   -0.0380    1.8070    0.1480 C   0  0  0  0  0  0  0  0  0  0  0  0
   -3.3600   -0.9580    0.3870 C   0  0  2  0  0  0  0  0  0  0  0  0
   -3.5560   -2.0780    1.4110 C   0  0  0  0  0  0  0  0  0  0  0  0
   -4.6080   -3.0620    0.8930 C   0  0  2  0  0  0  0  0  0  0  0  0
   -4.4950    0.9000   -0.8400 C   0  0  0  0  0  0  0  0  0  0  0  0
   -0.9870   -0.4410    0.5900 C   0  0  0  0  0  0  0  0  0  0  0  0
   -4.8440   -4.1920    1.9230 C   0  0  0  0  0  0  0  0  0  0  0  0
    3.1930    3.7510    0.3380 C   0  0  0  0  0  0  0  0  0  0  0  0
    1.0100    2.7990    0.5830 C   0  0  0  0  0  0  0  0  0  0  0  0
    1.7110    4.5740    2.0290 C   0  0  0  0  0  0  0  0  0  0  0  0
    3.8610   -0.3590    0.8710 C   0  0  1  0  0  0  0  0  0  0  0  0
    4.4100    0.2870   -0.4020 C   0  0  0  0  0  0  0  0  0  0  0  0
    7.9740   -1.7390   -1.6050 C   0  0  0  0  0  0  0  0  0  0  0  0
    8.0490   -0.6550   -0.7460 C   0  0  0  0  0  0  0  0  0  0  0  0
    6.8960   -0.0010   -0.3570 C   0  0  0  0  0  0  0  0  0  0  0  0
    5.6670   -0.4270   -0.8270 C   0  0  0  0  0  0  0  0  0  0  0  0
    5.5910   -1.5090   -1.6850 C   0  0  0  0  0  0  0  0  0  0  0  0
    6.7440   -2.1610   -2.0790 C   0  0  0  0  0  0  0  0  0  0  0  0
    9.1010   -2.3790   -1.9850 F   0  0  0  0  0  0  0  0  0  0  0  0
    1.4170   -0.1090    0.5900 N   0  0  0  0  0  0  0  0  0  0  0  0
   -2.2660   -0.0850    0.8220 N   0  0  0  0  0  0  0  0  0  0  0  0
   -4.3690   -5.0950   -0.2480 N   0  0  0  0  0  0  0  0  0  0  0  0
    4.8130   -0.1570    1.9720 N   0  0  0  0  0  0  0  0  0  0  0  0
    2.4890    1.1270    2.0870 O   0  0  0  0  0  0  0  0  0  0  0  0
   -3.5370   -3.2490   -1.2700 O   0  0  0  0  0  0  0  0  0  0  0  0
   -5.8590    2.6820   -1.8690 O   0  0  0  0  0  0  0  0  0  0  0  0
   -6.6960    1.4690   -0.2220 O   0  0  0  0  0  0  0  0  0  0  0  0
   -0.7380   -1.5230    0.1030 O   0  0  0  0  0  0  0  0  0  0  0  0
   -5.4790   -0.8050    0.0340 H   0  0  0  0  0  0  0  0  0  0  0  0
   -4.8450    0.3630    1.2170 H   0  0  0  0  0  0  0  0  0  0  0  0
   -7.2920    3.8950   -0.9600 H   0  0  0  0  0  0  0  0  0  0  0  0
   -7.9260    2.7260   -2.1430 H   0  0  0  0  0  0  0  0  0  0  0  0
   -7.9710    5.0310   -3.0570 H   0  0  0  0  0  0  0  0  0  0  0  0
   -6.2160    5.1690   -2.7960 H   0  0  0  0  0  0  0  0  0  0  0  0
   -6.8500    4.0000   -3.9790 H   0  0  0  0  0  0  0  0  0  0  0  0
   -4.6410   -6.3120    1.4530 H   0  0  0  0  0  0  0  0  0  0  0  0
   -6.1310   -5.5510    0.8180 H   0  0  0  0  0  0  0  0  0  0  0  0
    3.6820    5.3310    1.6920 H   0  0  0  0  0  0  0  0  0  0  0  0
    2.4360    2.1620   -0.8760 H   0  0  0  0  0  0  0  0  0  0  0  0
   -0.2030    3.6280    2.1360 H   0  0  0  0  0  0  0  0  0  0  0  0
    0.1100    0.7230    2.0030 H   0  0  0  0  0  0  0  0  0  0  0  0
    0.0740    1.6040   -0.9170 H   0  0  0  0  0  0  0  0  0  0  0  0
   -1.0290    2.2190    0.3370 H   0  0  0  0  0  0  0  0  0  0  0  0
   -3.1150   -1.3900   -0.5830 H   0  0  0  0  0  0  0  0  0  0  0  0
   -2.6120   -2.6010    1.5620 H   0  0  0  0  0  0  0  0  0  0  0  0
   -3.8910   -1.6520    2.3560 H   0  0  0  0  0  0  0  0  0  0  0  0
   -5.5400   -2.5430    0.6740 H   0  0  0  0  0  0  0  0  0  0  0  0
   -3.6640    1.5640   -0.6020 H   0  0  0  0  0  0  0  0  0  0  0  0
   -4.2980    0.3950   -1.7850 H   0  0  0  0  0  0  0  0  0  0  0  0
   -5.7280   -3.9940    2.5280 H   0  0  0  0  0  0  0  0  0  0  0  0
   -3.9650   -4.3320    2.5520 H   0  0  0  0  0  0  0  0  0  0  0  0
    4.1480    3.7840   -0.1660 H   0  0  0  0  0  0  0  0  0  0  0  0
    1.5080    5.2490    2.8470 H   0  0  0  0  0  0  0  0  0  0  0  0
    3.7200   -1.4270    0.7050 H   0  0  0  0  0  0  0  0  0  0  0  0
    3.6660    0.2150   -1.1960 H   0  0  0  0  0  0  0  0  0  0  0  0
    4.6350    1.3360   -0.2100 H   0  0  0  0  0  0  0  0  0  0  0  0
    9.0090   -0.3220   -0.3790 H   0  0  0  0  0  0  0  0  0  0  0  0
    6.9540    0.8440    0.3130 H   0  0  0  0  0  0  0  0  0  0  0  0
    4.6310   -1.8410   -2.0500 H   0  0  0  0  0  0  0  0  0  0  0  0
    6.6840   -3.0060   -2.7490 H   0  0  0  0  0  0  0  0  0  0  0  0
    1.4580   -0.7910   -0.0980 H   0  0  0  0  0  0  0  0  0  0  0  0
   -2.4630    0.7480    1.2780 H   0  0  0  0  0  0  0  0  0  0  0  0
   -4.1290   -5.7500   -0.9230 H   0  0  0  0  0  0  0  0  0  0  0  0
    5.6860   -0.6280    1.7860 H   0  0  0  0  0  0  0  0  0  0  0  0
    4.9620    0.8250    2.1460 H   0  0  0  0  0  0  0  0  0  0  0  0
  6 33  1  0  0  0  0
  6 18  1  0  0  0  0
  1 33  1  0  0  0  0
  4  5  1  0  0  0  0
 15 18  1  0  0  0  0
  1 15  1  0  0  0  0
  1 36  2  0  0  0  0
  3 38  2  0  0  0  0
  4 37  1  0  0  0  0
 14 15  1  0  0  0  0
 13 14  1  0  0  0  0
  3 37  1  0  0  0  0
  3 16  1  0  0  0  0
  2 13  1  0  0  0  0
 13 32  1  0  0  0  0
  2 16  1  0  0  0  0
 17 39  2  0  0  0  0
 17 32  1  0  0  0  0
 11 17  1  0  0  0  0
 22 34  1  0  0  0  0
 10 22  1  0  0  0  0
 22 23  1  0  0  0  0
 10 35  2  0  0  0  0
 10 31  1  0  0  0  0
 11 31  1  0  0  0  0
 11 12  1  0  0  0  0
 23 27  1  0  0  0  0
 12 20  1  0  0  0  0
 27 28  2  0  0  0  0
 26 27  1  0  0  0  0
 28 29  1  0  0  0  0
  8 20  2  0  0  0  0
  9 20  1  0  0  0  0
 25 26  2  0  0  0  0
 24 29  2  0  0  0  0
  8 19  1  0  0  0  0
  9 21  2  0  0  0  0
 24 25  1  0  0  0  0
 24 30  1  0  0  0  0
  7 19  2  0  0  0  0
  7 21  1  0  0  0  0
  2 40  1  0  0  0  0
  2 41  1  0  0  0  0
  4 42  1  0  0  0  0
  4 43  1  0  0  0  0
  5 44  1  0  0  0  0
  5 45  1  0  0  0  0
  5 46  1  0  0  0  0
  6 47  1  0  0  0  0
  6 48  1  0  0  0  0
  7 49  1  0  0  0  0
  8 50  1  0  0  0  0
  9 51  1  0  0  0  0
 11 52  1  0  0  0  0
 12 53  1  0  0  0  0
 12 54  1  0  0  0  0
 13 55  1  0  0  0  0
 14 56  1  0  0  0  0
 14 57  1  0  0  0  0
 15 58  1  0  0  0  0
 16 59  1  0  0  0  0
 16 60  1  0  0  0  0
 18 61  1  0  0  0  0
 18 62  1  0  0  0  0
 19 63  1  0  0  0  0
 21 64  1  0  0  0  0
 22 65  1  0  0  0  0
 23 66  1  0  0  0  0
 23 67  1  0  0  0  0
 25 68  1  0  0  0  0
 26 69  1  0  0  0  0
 28 70  1  0  0  0  0
 29 71  1  0  0  0  0
 31 72  1  0  0  0  0
 32 73  1  0  0  0  0
 33 74  1  0  0  0  0
 34 75  1  0  0  0  0
 34 76  1  0  0  0  0
M  END
> <OPENEYE_ISO_SMILES>
CCOC(=O)CC[C@H](C[C@@H]1CCNC1=O)NC(=O)[C@H](Cc2ccccc2)NC(=O)[C@@H](Cc3ccc(cc3)F)N

> <OPENEYE_INCHI>
InChI=1S/C29H37FN4O5/c1-2-39-26(35)13-12-23(18-21-14-15-32-27(21)36)33-29(38)25(17-19-6-4-3-5-7-19)34-28(37)24(31)16-20-8-10-22(30)11-9-20/h3-11,21,23-25H,2,12-18,31H2,1H3,(H,32,36)(H,33,38)(H,34,37)/t21-,23+,24+,25-/m0/s1

> <OPENEYE_INCHIKEY>
NURFMZSCLLICCV-QVQNZMNRSA-N

> <FORMULA>
C29H37FN4O5

$$$$
