@<TRIPOS>MOLECULE
/home/pku/3cl/gett_pdb/7SD9/7SD9_mol2/ligand/7SD9_8T6.pdb
 31 33 0 0 0
SMALL
GASTEIGER

@<TRIPOS>ATOM
      1  C1        -9.1550  -18.1040  -20.1650 C.2   401  8T6401      0.0084
      2  C10       -6.1930  -14.8530  -18.5460 C.3   401  8T6401      0.0001
      3  C11       -6.5690  -13.2840  -16.6750 C.3   401  8T6401      0.0001
      4  C12       -9.6880  -16.6740  -18.1300 C.2   401  8T6401      0.2683
      5  C13       -5.9760  -12.4260  -18.9590 C.3   401  8T6401      0.0001
      6  C14       -9.1390  -14.3570  -17.9030 C.3   401  8T6401      0.1728
      7  C15      -10.5380  -13.8370  -17.8900 C.2   401  8T6401      0.2612
      8  C17      -12.4030  -12.8820  -16.7720 C.3   401  8T6401      0.1287
      9  C19      -13.2610  -13.6920  -15.7840 C.3   401  8T6401      0.0335
     10  C2        -9.2330  -19.5190  -20.3370 C.ar  401  8T6401      0.0153
     11  C20      -13.4380  -15.1400  -16.2410 C.3   401  8T6401      0.0818
     12  C21      -14.2590  -15.2520  -17.5210 C.3   401  8T6401      0.0326
     13  C22      -15.0300  -16.5660  -17.3740 C.3   401  8T6401      0.1156
     14  C24      -14.2630  -15.9620  -15.2930 C.2   401  8T6401      0.2410
     15  C3        -9.6780  -20.1440  -19.1890 C.ar  401  8T6401      0.0766
     16  C30       -9.5810  -17.9560  -18.8510 C.3   401  8T6401      0.2026
     17  C34       -8.2250  -13.3440  -18.5810 C.3   401  8T6401      0.0311
     18  C4        -9.8210  -21.5230  -19.1360 C.ar  401  8T6401      0.0187
     19  C5        -9.5120  -22.2740  -20.2740 C.ar  401  8T6401      0.0015
     20  C6        -9.0670  -21.6420  -21.4350 C.ar  401  8T6401      0.0001
     21  C7        -8.9210  -20.2570  -21.4770 C.ar  401  8T6401      0.0012
     22  C8       -12.3950  -11.3920  -16.4290 C.3   401  8T6401      0.2036
     23  C9        -6.7540  -13.4860  -18.1770 C.3   401  8T6401      0.0021
     24  N1        -9.8780  -19.1540  -18.2940 N.2   401  8T6401     -0.2586
     25  N13       -9.1720  -15.5820  -18.6720 N.am  401  8T6401     -0.1959
     26  N16      -11.0260  -13.3540  -16.7530 N.am  401  8T6401     -0.2030
     27  N23      -15.1260  -16.7660  -15.9350 N.am  401  8T6401     -0.2054
     28  O26      -14.1350  -15.8660  -14.0930 O.2   401  8T6401     -0.2734
     29  O33      -10.2380  -16.6720  -17.0480 O.2   401  8T6401     -0.2709
     30  O38      -11.1940  -13.8790  -18.9170 O.2   401  8T6401     -0.2715
     31  O9       -13.7090  -10.8470  -16.6200 O.3   401  8T6401     -0.2185
@<TRIPOS>BOND
     1    21    20   ar
     2    21    10   ar
     3    20    19   ar
     4    10     1    2
     5    10    15   ar
     6    19    18   ar
     7     1    16    1
     8    15    18   ar
     9    15    24    2
    10     5    23    1
    11    30     7    2
    12    16    24    1
    13    16     4    1
    14    25     4   am
    15    25     6    1
    16    17    23    1
    17    17     6    1
    18     2    23    1
    19    23     3    1
    20     4    29    2
    21     6     7    1
    22     7    26   am
    23    12    13    1
    24    12    11    1
    25    13    27    1
    26     8    26    1
    27     8    22    1
    28     8     9    1
    29    31    22    1
    30    11     9    1
    31    11    14    1
    32    27    14   am
    33    14    28    2
