@<TRIPOS>MOLECULE
/home/pku/3cl/gett_pdb/7COM/7COM_mol2/ligand/7COM_U5G.pdb
 37 39 0 0 0
SMALL
GASTEIGER

@<TRIPOS>ATOM
      1  C28      -19.9440    7.2640   33.3420 C.2   401  U5G401      0.3395
      2  N29      -19.0140    7.0890   34.1920 N.am  401  U5G401     -0.1906
      3  O34      -21.1170    7.4370   33.6720 O.2   401  U5G401     -0.2492
      4  C30      -19.1800    7.0800   35.6520 C.3   401  U5G401      0.0804
      5  C31      -20.1640    6.0090   36.1120 C.3   401  U5G401      0.0218
      6  C32      -17.8460    6.7540   36.2910 C.3   401  U5G401      0.0218
      7  C33      -19.6190    8.4440   36.1830 C.3   401  U5G401      0.0218
      8  N27      -19.5970    7.2810   32.1210 N.am  401  U5G401     -0.1796
      9  C22      -20.5660    7.4150   31.0350 C.3   401  U5G401      0.1727
     10  C23      -20.3110    8.5940   30.0950 C.3   401  U5G401      0.0270
     11  C24      -18.9230    8.5190   29.4420 C.3   401  U5G401      0.0022
     12  C25      -20.3640    9.8780   30.9220 C.3   401  U5G401      0.0022
     13  C26      -21.4440    8.6310   29.0590 C.3   401  U5G401      0.0022
     14  C21      -20.7280    6.0940   30.3250 C.2   401  U5G401      0.2459
     15  O35      -19.7500    5.5800   29.7940 O.2   401  U5G401     -0.2730
     16  N20      -21.9450    5.5160   30.3710 N.am  401  U5G401     -0.2716
     17  C19      -23.1270    5.9670   31.1160 C.3   401  U5G401      0.0939
     18  C13      -22.2280    4.2820   29.6320 C.3   401  U5G401      0.1535
     19  C14      -23.5730    3.7480   30.1290 C.3   401  U5G401      0.0289
     20  C15      -24.1610    4.8400   31.0160 C.3   401  U5G401      0.0220
     21  C16      -23.7700    3.4850   31.6260 C.3   401  U5G401      0.0037
     22  C17      -22.6000    3.4260   32.6140 C.3   401  U5G401      0.0001
     23  C18      -24.9750    2.6170   31.9660 C.3   401  U5G401      0.0001
     24  C12      -22.3730    4.6540   28.1910 C.2   401  U5G401      0.2595
     25  O36      -23.1710    5.5260   27.8630 O.2   401  U5G401     -0.2716
     26  N11      -21.6250    4.0410   27.3810 N.am  401  U5G401     -0.2027
     27  C05      -21.6140    4.3630   25.9560 C.3   401  U5G401      0.1347
     28  C06      -20.1620    4.8270   25.8140 C.3   401  U5G401      0.0248
     29  C07      -20.0200    6.1650   25.1000 C.3   401  U5G401      0.0018
     30  C10      -18.8050    6.9470   25.5860 C.3   401  U5G401      0.0001
     31  C08      -20.9340    7.2820   25.6160 C.3   401  U5G401      0.0001
     32  C09      -19.7020    8.1250   25.9230 C.3   401  U5G401      0.0000
     33  O04      -23.1960    2.5090   25.6000 O.3   401  U5G401     -0.2113
     34  C03      -22.0050    3.1410   25.1010 C.3   401  U5G401      0.2503
     35  O01      -21.3570    3.5250   22.8810 O.2   401  U5G401     -0.2688
     36  C02      -22.2830    3.5760   23.6770 C.2   401  U5G401      0.2929
     37  N37      -23.4470    3.9840   23.3360 N.am  401  U5G401     -0.0855
@<TRIPOS>BOND
     1    35    36    2
     2    37    36   am
     3    36    34    1
     4    29    30    1
     5    29    31    1
     6    29    28    1
     7    34    33    1
     8    34    27    1
     9    30    32    1
    10    31    32    1
    11    28    27    1
    12    27    26    1
    13    26    24   am
    14    25    24    2
    15    24    18    1
    16    13    10    1
    17    11    10    1
    18    18    19    1
    19    18    16    1
    20    15    14    2
    21    10    12    1
    22    10     9    1
    23    19    20    1
    24    19    21    1
    25    14    16   am
    26    14     9    1
    27    16    17    1
    28    20    17    1
    29    20    21    1
    30     9     8    1
    31    21    23    1
    32    21    22    1
    33     8     1   am
    34     1     3    2
    35     1     2   am
    36     2     4    1
    37     4     5    1
    38     4     7    1
    39     4     6    1
