@<TRIPOS>MOLECULE
/home/pku/3cl/gett_pdb/7O36/7O36_mol2/ligand/7O36_GTP.pdb
 32 34 0 0 0
SMALL
GASTEIGER

@<TRIPOS>ATOM
      1  PG        26.8990   22.7870   39.6240 P.3   401  GTP401      0.5373
      2  O1G       25.9660   23.3180   38.5560 O.2   401  GTP401     -0.2221
      3  O2G       26.7820   23.4960   40.9590 O.3   401  GTP401     -0.1143
      4  O3G       28.3350   22.6820   39.1640 O.3   401  GTP401     -0.1143
      5  O3B       26.3410   21.2810   39.9550 O.3   401  GTP401     -0.2258
      6  PB        26.7360   19.8250   39.3140 P.3   401  GTP401      0.2277
      7  O1B       26.8180   18.7720   40.4020 O.3   401  GTP401     -0.4368
      8  O2B       27.9230   19.9600   38.4010 O.2   401  GTP401     -0.5168
      9  O3A       25.4920   19.4660   38.3510 O.3   401  GTP401     -0.2700
     10  PA        24.0170   19.0550   38.8470 P.3   401  GTP401      0.2189
     11  O1A       23.2370   18.6370   37.6260 O.2   401  GTP401     -0.5170
     12  O2A       23.5000   20.1870   39.7070 O.3   401  GTP401     -0.4371
     13  O5'       24.2920   17.7640   39.7780 O.3   401  GTP401     -0.3112
     14  C5'       23.4910   16.5880   39.7600 C.3   401  GTP401      0.1813
     15  C4'       24.3660   15.3410   39.6280 C.3   401  GTP401      0.1801
     16  O4'       23.7350   14.4270   38.7250 O.3   401  GTP401     -0.3306
     17  C3'       25.7920   15.5370   39.0990 C.3   401  GTP401      0.2161
     18  O3'       26.7580   15.7290   40.1390 O.3   401  GTP401     -0.2175
     19  C2'       26.0660   14.3030   38.2440 C.3   401  GTP401      0.2337
     20  O2'       26.7930   13.2590   38.8890 O.3   401  GTP401     -0.2155
     21  C1'       24.6850   13.8680   37.7980 C.3   401  GTP401      0.2409
     22  N9        24.5130   14.4470   36.4490 N.ar  401  GTP401     -0.2693
     23  C8        24.0400   15.6900   36.1670 C.ar  401  GTP401      0.1817
     24  N7        24.0400   15.9370   34.8400 N.ar  401  GTP401     -0.2173
     25  C5        24.5350   14.8070   34.2740 C.ar  401  GTP401      0.1748
     26  C6        24.8240   14.3750   32.9000 C.ar  401  GTP401      0.3023
     27  O6        24.5590   15.1440   31.9500 O.2   401  GTP401     -0.2633
     28  N1        25.3480   13.1450   32.6980 N.ar  401  GTP401     -0.1709
     29  C2        25.6390   12.2830   33.7130 C.ar  401  GTP401      0.2606
     30  N2        26.1550   11.0420   33.3860 N.pl3 401  GTP401     -0.0859
     31  N3        25.4090   12.6260   35.0300 N.ar  401  GTP401     -0.1918
     32  C4        24.8650   13.8380   35.3310 C.ar  401  GTP401      0.1723
@<TRIPOS>BOND
     1    27    26    2
     2    28    26   ar
     3    28    29   ar
     4    26    25   ar
     5    30    29    1
     6    29    31   ar
     7    25    24   ar
     8    25    32   ar
     9    24    23   ar
    10    31    32   ar
    11    32    22   ar
    12    23    22   ar
    13    22    21    1
    14    11    10    2
    15    21    19    1
    16    21    16    1
    17    19    20    1
    18    19    17    1
    19     9    10    1
    20     9     6    1
    21     8     6    2
    22     2     1    2
    23    16    15    1
    24    10    12    1
    25    10    13    1
    26    17    15    1
    27    17    18    1
    28     4     1    1
    29     6     5    1
    30     6     7    1
    31     1     5    1
    32     1     3    1
    33    15    14    1
    34    14    13    1
