@<TRIPOS>MOLECULE
/home/pku/3cl/gett_pdb/7WO2/7WO2_mol2/ligand/7WO2_40I.pdb
 34 35 0 0 0
SMALL
GASTEIGER

@<TRIPOS>ATOM
      1  C26       20.3210   16.9020   31.0380 C.2   401  40I401      0.2999
      2  C27       19.5070   17.7820   31.9910 C.ar  401  40I401      0.2002
      3  C28       20.0320   18.5960   33.0070 C.ar  401  40I401      0.0455
      4  C29       18.9520   19.1990   33.6510 C.ar  401  40I401      0.0440
      5  C30       17.7960   18.7330   33.0260 C.ar  401  40I401      0.1798
      6  O32       21.4690   17.0950   30.8050 O.2   401  40I401     -0.2650
      7  O31       18.1590   17.8770   32.0370 O.2   401  40I401     -0.4458
      8  N25       19.6540   15.7500   30.4350 N.am  401  40I401     -0.1914
      9  C21       20.4100   14.8790   29.5760 C.3   401  40I401      0.1731
     10  C20       19.6480   14.7630   28.2520 C.2   401  40I401      0.2616
     11  O33       18.5380   14.3490   28.2350 O.2   401  40I401     -0.2715
     12  C22       20.4130   13.5200   30.2390 C.3   401  40I401      0.0290
     13  C24       21.1800   12.5080   29.3990 C.3   401  40I401      0.0023
     14  C23       20.9170   13.6430   31.6760 C.3   401  40I401      0.0023
     15  N19       20.3160   15.1890   27.0180 N.am  401  40I401     -0.1963
     16  C14       19.5830   15.0990   25.7520 C.3   401  40I401      0.1728
     17  C13       19.5700   13.6540   25.2900 C.2   401  40I401      0.2616
     18  O34       20.5620   13.0070   25.2810 O.2   401  40I401     -0.2715
     19  C15       20.3240   15.9220   24.6900 C.3   401  40I401      0.0311
     20  C16       20.0440   17.4590   24.6880 C.3   401  40I401      0.0022
     21  C17       21.0870   18.2010   23.8030 C.3   401  40I401      0.0001
     22  C18       20.0070   18.0930   26.0880 C.3   401  40I401      0.0001
     23  C07       19.1040    9.1010   27.4140 C.3   401  40I401      0.0239
     24  C03       18.2610   11.6900   24.3840 C.3   401  40I401      0.1601
     25  C06       18.9620   10.4970   27.0560 C.3   401  40I401      0.0110
     26  C10       16.4690   10.1430   27.5800 C.2   401  40I401      0.2410
     27  C04       17.2910   10.8710   25.2640 C.3   401  40I401      0.0388
     28  C02       17.7120   11.7030   22.9480 C.2   401  40I401      0.2287
     29  C05       17.6150   10.9270   26.8260 C.3   401  40I401      0.0804
     30  C08       18.3390    8.7100   28.6170 C.3   401  40I401      0.1152
     31  N12       18.3060   13.0670   24.8490 N.am  401  40I401     -0.1977
     32  N09       16.8490    8.9890   28.5020 N.am  401  40I401     -0.2054
     33  O01       17.7380   10.6710   22.3460 O.2   401  40I401     -0.2864
     34  O11       15.3390   10.4620   27.4400 O.2   401  40I401     -0.2734
@<TRIPOS>BOND
     1    33    28    2
     2    28    24    1
     3    21    20    1
     4    24    31    1
     5    24    27    1
     6    20    19    1
     7    20    22    1
     8    19    16    1
     9    31    17   am
    10    27    29    1
    11    18    17    2
    12    17    16    1
    13    16    15    1
    14    29    25    1
    15    29    26    1
    16    15    10   am
    17    25    23    1
    18    23    30    1
    19    34    26    2
    20    26    32   am
    21    11    10    2
    22    10     9    1
    23    32    30    1
    24    13    12    1
    25     9    12    1
    26     9     8    1
    27    12    14    1
    28     8     1   am
    29     6     1    2
    30     1     2    1
    31     2     7   ar
    32     2     3   ar
    33     7     5   ar
    34     3     4   ar
    35     5     4   ar
