@<TRIPOS>MOLECULE
/home/pku/3cl/gett_pdb/5SRW/5SRW_mol2/ligand/5SRW_RI7.pdb
 42 45 0 0 0
SMALL
GASTEIGER

@<TRIPOS>ATOM
      1  C18      -46.3360  -29.3150    6.2780 C.ar  201  RI7201      0.1442
      2  C15      -48.6990  -29.0190    3.5010 C.ar  201  RI7201     -0.0491
      3  C14      -50.0830  -28.9130    3.6160 C.ar  201  RI7201     -0.0257
      4  C13      -50.6930  -28.9190    4.8710 C.ar  201  RI7201      0.1254
      5  C12      -49.9190  -29.0250    6.0160 C.ar  201  RI7201     -0.0025
      6  C11      -48.5150  -29.1270    5.9080 C.ar  201  RI7201      0.0515
      7  C10      -47.9110  -29.1280    4.6700 C.ar  201  RI7201      0.0124
      8  C20      -44.0300  -29.4840    6.0470 C.ar  201  RI7201      0.1204
      9  C01      -46.1820  -34.0580   -0.2110 C.3   201  RI7201      0.0817
     10  C03      -44.1780  -32.9270   -0.0600 C.2   201  RI7201      0.3094
     11  C04      -44.0460  -31.5570    0.5930 C.3   201  RI7201      0.0726
     12  C05      -45.3900  -30.7880    0.6370 C.3   201  RI7201      0.0844
     13  C06      -45.8740  -30.4960    2.0520 C.3   201  RI7201      0.0404
     14  C08      -45.3020  -29.3040    4.1340 C.ar  201  RI7201      0.1345
     15  C09      -46.4800  -29.2500    4.9120 C.ar  201  RI7201      0.0663
     16  C22      -44.1390  -28.8800    1.9790 C.3   201  RI7201      0.0371
     17  C23      -44.3720  -28.6460    0.5010 C.3   201  RI7201      0.0638
     18  F16      -52.0490  -28.8200    4.9720 F     201  RI7201     -0.2054
     19  N07      -45.3610  -29.2710    2.6890 N.pl3 201  RI7201     -0.3099
     20  N17      -47.5550  -29.2430    6.8550 N.ar  201  RI7201     -0.3389
     21  N19      -45.0990  -29.4330    6.8070 N.ar  201  RI7201     -0.2178
     22  N21      -44.1150  -29.4270    4.7240 N.ar  201  RI7201     -0.2200
     23  O02      -44.9970  -33.9030    0.5050 O.3   201  RI7201     -0.4679
     24  O24      -45.2280  -29.5910    0.0070 O.3   201  RI7201     -0.3729
     25  O25      -43.5910  -33.1620   -1.0620 O.2   201  RI7201     -0.2508
     26 H151      -48.2340  -29.0130    2.5190 H     201  RI7201      0.0625
     27 H141      -50.6880  -28.8310    2.7290 H     201  RI7201      0.0646
     28 H121      -50.3730  -29.0290    6.9940 H     201  RI7201      0.0667
     29 H201      -43.0640  -29.5790    6.5190 H     201  RI7201      0.1048
     30 H012      -46.7050  -34.9380    0.1370 H     201  RI7201      0.0661
     31 H013      -45.9590  -34.1590   -1.2690 H     201  RI7201      0.0661
     32 H011      -46.8030  -33.1820   -0.0520 H     201  RI7201      0.0661
     33 H041      -43.3260  -30.9820    0.0170 H     201  RI7201      0.0404
     34 H042      -43.7050  -31.6550    1.6110 H     201  RI7201      0.0404
     35 H051      -46.1380  -31.3640    0.0910 H     201  RI7201      0.0617
     36 H061      -45.5690  -31.3300    2.6410 H     201  RI7201      0.0490
     37 H062      -46.9550  -30.4540    2.0250 H     201  RI7201      0.0490
     38 H222      -43.7910  -27.9600    2.3890 H     201  RI7201      0.0487
     39 H221      -43.3630  -29.6180    2.1230 H     201  RI7201      0.0487
     40 H231      -44.8560  -27.6910    0.3570 H     201  RI7201      0.0575
     41 H232      -43.4380  -28.6530   -0.0590 H     201  RI7201      0.0575
     42 H171      -47.7190  -29.2700    7.8420 H     201  RI7201      0.1673
@<TRIPOS>BOND
     1    31     9    1
     2    25    10    2
     3     9    32    1
     4     9    30    1
     5     9    23    1
     6    10    23    1
     7    10    11    1
     8    41    17    1
     9    24    17    1
    10    24    12    1
    11    33    11    1
    12    35    12    1
    13    40    17    1
    14    17    16    1
    15    11    12    1
    16    11    34    1
    17    12    13    1
    18    16    39    1
    19    16    38    1
    20    16    19    1
    21    37    13    1
    22    13    36    1
    23    13    19    1
    24    26     2    1
    25    19    14    1
    26    27     3    1
    27     2     3   ar
    28     2     7   ar
    29     3     4   ar
    30    14    22   ar
    31    14    15   ar
    32     7    15   ar
    33     7     6   ar
    34    22     8   ar
    35     4    18    1
    36     4     5   ar
    37    15     1   ar
    38     6     5   ar
    39     6    20   ar
    40     5    28    1
    41     8    29    1
    42     8    21   ar
    43     1    21   ar
    44     1    20   ar
    45    20    42    1
