HH8
  -OEChem-02242320023D

 16 17  0     0  0  0  0  0  0999 V2000
    1.9170   -0.5800   -0.0010 C   0  0  0  0  0  0  0  0  0  0  0  0
    3.1220    1.3910    0.0000 C   0  0  0  0  0  0  0  0  0  0  0  0
    1.9630    2.1620   -0.0030 C   0  0  0  0  0  0  0  0  0  0  0  0
    0.7400    1.5520    0.0000 C   0  0  0  0  0  0  0  0  0  0  0  0
    0.7010    0.1470    0.0010 C   0  0  0  0  0  0  0  0  0  0  0  0
    1.8870   -1.9170    0.0010 N   0  0  0  0  0  0  0  0  0  0  0  0
    3.0800    0.0800    0.0010 N   0  0  0  0  0  0  0  0  0  0  0  0
    0.7530   -2.5760   -0.0010 C   0  0  0  0  0  0  0  0  0  0  0  0
   -2.1710    0.3650    0.0000 Br  0  0  0  0  0  0  0  0  0  0  0  0
   -0.5190   -0.5550    0.0040 C   0  0  0  0  0  0  0  0  0  0  0  0
   -0.4760   -1.9230   -0.0040 C   0  0  0  0  0  0  0  0  0  0  0  0
    4.0820    1.8850    0.0020 H   0  0  0  0  0  0  0  0  0  0  0  0
    2.0300    3.2400   -0.0040 H   0  0  0  0  0  0  0  0  0  0  0  0
   -0.1710    2.1330    0.0010 H   0  0  0  0  0  0  0  0  0  0  0  0
    0.7740   -3.6560    0.0010 H   0  0  0  0  0  0  0  0  0  0  0  0
   -1.3920   -2.4930   -0.0140 H   0  0  0  0  0  0  0  0  0  0  0  0
  9 10  1  0  0  0  0
 10 11  2  0  0  0  0
  5 10  1  0  0  0  0
  8 11  1  0  0  0  0
  4  5  1  0  0  0  0
  3  4  2  0  0  0  0
  1  5  2  0  0  0  0
  6  8  2  0  0  0  0
  2  3  1  0  0  0  0
  1  6  1  0  0  0  0
  1  7  1  0  0  0  0
  2  7  2  0  0  0  0
  2 12  1  0  0  0  0
  3 13  1  0  0  0  0
  4 14  1  0  0  0  0
  8 15  1  0  0  0  0
 11 16  1  0  0  0  0
M  END
> <OPENEYE_ISO_SMILES>
c1cc2c(ccnc2nc1)Br

> <OPENEYE_INCHI>
InChI=1S/C8H5BrN2/c9-7-3-5-11-8-6(7)2-1-4-10-8/h1-5H

> <OPENEYE_INCHIKEY>
QYXNSNJTMIEAPG-UHFFFAOYSA-N

> <FORMULA>
C8H5BrN2

$$$$
