2DO
  -OEChem-02242320003D

 24 23  0     1  0  0  0  0  0999 V2000
   -0.6980   -1.7970   -0.1630 N   0  0  0  0  0  0  0  0  0  0  0  0
   -0.7480   -0.3820    0.2300 C   0  0  2  0  0  0  0  0  0  0  0  0
   -2.0400    0.2470   -0.2940 C   0  0  0  0  0  0  0  0  0  0  0  0
    0.4550    0.3540   -0.3620 C   0  0  0  0  0  0  0  0  0  0  0  0
    1.7430   -0.1930    0.2570 C   0  0  0  0  0  0  0  0  0  0  0  0
    2.9470    0.5430   -0.3360 C   0  0  0  0  0  0  0  0  0  0  0  0
    4.2340   -0.0040    0.2830 C   0  0  0  0  0  0  0  0  0  0  0  0
   -3.1640   -0.4400    0.2590 O   0  0  0  0  0  0  0  0  0  0  0  0
   -2.0880    1.6240    0.0880 O   0  0  0  0  0  0  0  0  0  0  0  0
   -0.7250   -1.8190   -1.1710 H   0  0  0  0  0  0  0  0  0  0  0  0
    0.2090   -2.1420    0.1110 H   0  0  0  0  0  0  0  0  0  0  0  0
   -0.7210   -0.3060    1.3170 H   0  0  0  0  0  0  0  0  0  0  0  0
   -2.0660    0.1710   -1.3810 H   0  0  0  0  0  0  0  0  0  0  0  0
    0.3720    1.4190   -0.1460 H   0  0  0  0  0  0  0  0  0  0  0  0
    0.4780    0.2030   -1.4410 H   0  0  0  0  0  0  0  0  0  0  0  0
    1.8270   -1.2580    0.0400 H   0  0  0  0  0  0  0  0  0  0  0  0
    1.7200   -0.0420    1.3360 H   0  0  0  0  0  0  0  0  0  0  0  0
    2.8630    1.6080   -0.1190 H   0  0  0  0  0  0  0  0  0  0  0  0
    2.9690    0.3930   -1.4150 H   0  0  0  0  0  0  0  0  0  0  0  0
    5.0920    0.5210   -0.1390 H   0  0  0  0  0  0  0  0  0  0  0  0
    4.2110    0.1470    1.3630 H   0  0  0  0  0  0  0  0  0  0  0  0
    4.3180   -1.0690    0.0670 H   0  0  0  0  0  0  0  0  0  0  0  0
   -3.9550   -0.0130   -0.0960 H   0  0  0  0  0  0  0  0  0  0  0  0
   -2.0630    1.6460    1.0550 H   0  0  0  0  0  0  0  0  0  0  0  0
  1  2  1  0  0  0  0
  1 10  1  0  0  0  0
  1 11  1  0  0  0  0
  2  3  1  0  0  0  0
  2  4  1  0  0  0  0
  2 12  1  0  0  0  0
  3  8  1  0  0  0  0
  3  9  1  0  0  0  0
  3 13  1  0  0  0  0
  4  5  1  0  0  0  0
  4 14  1  0  0  0  0
  4 15  1  0  0  0  0
  5  6  1  0  0  0  0
  5 16  1  0  0  0  0
  5 17  1  0  0  0  0
  6  7  1  0  0  0  0
  6 18  1  0  0  0  0
  6 19  1  0  0  0  0
  7 20  1  0  0  0  0
  7 21  1  0  0  0  0
  7 22  1  0  0  0  0
  8 23  1  0  0  0  0
  9 24  1  0  0  0  0
M  END
> <OPENEYE_ISO_SMILES>
CCCC[C@@H](C(O)O)N

> <OPENEYE_INCHI>
InChI=1S/C6H15NO2/c1-2-3-4-5(7)6(8)9/h5-6,8-9H,2-4,7H2,1H3/t5-/m0/s1

> <OPENEYE_INCHIKEY>
SUCLLBDDWGZXQQ-YFKPBYRVSA-N

> <FORMULA>
C6H15NO2

$$$$
