@<TRIPOS>MOLECULE
/home/pku/3cl/gett_pdb/5SRF/5SRF_mol2/ligand/5SRF_R8Z.pdb
 41 44 0 0 0
SMALL
GASTEIGER

@<TRIPOS>ATOM
      1  C18      -43.3130  -30.4270    0.9090 C.3   201  R8Z201     -0.0314
      2  C17      -43.5100  -30.2640    2.5440 C.3   201  R8Z201      0.0439
      3  C15      -43.9420  -29.4000    6.4700 C.ar  201  R8Z201      0.1204
      4  C13      -46.2500  -29.1750    6.3880 C.ar  201  R8Z201      0.1442
      5  C10      -48.4520  -29.2210    3.4370 C.ar  201  R8Z201     -0.0491
      6  C20      -44.6590  -32.6640    1.0840 C.3   201  R8Z201      0.0659
      7  C19      -43.6170  -31.8890    0.3140 C.3   201  R8Z201     -0.0319
      8  C01      -45.6360  -29.0830    1.9930 C.3   201  R8Z201      0.0024
      9  C03      -44.9810  -29.4850    4.3960 C.ar  201  R8Z201      0.1344
     10  C04      -46.2660  -29.3050    5.0110 C.ar  201  R8Z201      0.0663
     11  C05      -47.6950  -29.1880    4.6440 C.ar  201  R8Z201      0.0124
     12  C06      -48.3870  -29.0090    5.8240 C.ar  201  R8Z201      0.0515
     13  C07      -49.7930  -28.8680    5.8430 C.ar  201  R8Z201     -0.0025
     14  C08      -50.5160  -28.9010    4.6660 C.ar  201  R8Z201      0.1254
     15  C09      -49.8370  -29.0650    3.4640 C.ar  201  R8Z201     -0.0257
     16  C23      -43.2180  -31.6050    3.2280 C.3   201  R8Z201      0.0842
     17  F11      -51.8750  -28.7660    4.6760 F     201  R8Z201     -0.2054
     18  N02      -44.7270  -29.6370    2.9670 N.pl3 201  R8Z201     -0.3130
     19  N12      -47.5070  -29.0090    6.8420 N.ar  201  R8Z201     -0.3389
     20  N14      -45.0870  -29.2310    7.0760 N.ar  201  R8Z201     -0.2178
     21  N16      -43.8890  -29.5120    5.1560 N.ar  201  R8Z201     -0.2200
     22  O22      -45.5830  -32.8790    3.2110 O.2   201  R8Z201     -0.1743
     23  O24      -43.4810  -34.1880    2.8280 O.2   201  R8Z201     -0.1743
     24  S21      -44.2240  -32.9310    2.7210 S.O2  201  R8Z201     -0.0293
     25 H182      -43.8770  -29.7030    0.3460 H     201  R8Z201      0.0284
     26 H181      -42.2660  -30.2360    0.7270 H     201  R8Z201      0.0284
     27 H171      -42.7450  -29.5660    2.8140 H     201  R8Z201      0.0516
     28 H151      -43.0290  -29.4320    7.0480 H     201  R8Z201      0.1048
     29 H101      -47.9660  -29.3540    2.4730 H     201  R8Z201      0.0625
     30 H201      -44.7440  -33.6280    0.6290 H     201  R8Z201      0.0500
     31 H202      -45.6400  -32.1770    1.0890 H     201  R8Z201      0.0500
     32 H192      -42.6920  -32.4620    0.3640 H     201  R8Z201      0.0281
     33 H191      -43.9340  -31.8090   -0.7100 H     201  R8Z201      0.0281
     34 H011      -45.0880  -28.4930    1.2800 H     201  R8Z201      0.0428
     35 H013      -46.3200  -28.4140    2.4730 H     201  R8Z201      0.0428
     36 H012      -46.1690  -29.8860    1.5030 H     201  R8Z201      0.0428
     37 H071      -50.3010  -28.7380    6.7860 H     201  R8Z201      0.0667
     38 H091      -50.3990  -29.0940    2.5360 H     201  R8Z201      0.0646
     39 H231      -43.2210  -31.4990    4.3060 H     201  R8Z201      0.0518
     40 H232      -42.2030  -31.8700    2.9710 H     201  R8Z201      0.0518
     41 H121      -47.7470  -28.9000    7.8050 H     201  R8Z201      0.1673
@<TRIPOS>BOND
     1    33     7    1
     2     7    32    1
     3     7     1    1
     4     7     6    1
     5    25     1    1
     6    30     6    1
     7    26     1    1
     8     1     2    1
     9     6    31    1
    10     6    24    1
    11    34     8    1
    12    36     8    1
    13     8    35    1
    14     8    18    1
    15    29     5    1
    16    38    15    1
    17     2    27    1
    18     2    18    1
    19     2    16    1
    20    24    23    2
    21    24    22    2
    22    24    16    1
    23    18     9    1
    24    40    16    1
    25    16    39    1
    26     5    15   ar
    27     5    11   ar
    28    15    14   ar
    29     9    10   ar
    30     9    21   ar
    31    11    10   ar
    32    11    12   ar
    33    14    17    1
    34    14    13   ar
    35    10     4   ar
    36    21     3   ar
    37    12    13   ar
    38    12    19   ar
    39    13    37    1
    40     4    19   ar
    41     4    20   ar
    42     3    28    1
    43     3    20   ar
    44    19    41    1
