@<TRIPOS>MOLECULE
/home/pku/3cl/gett_pdb/7L0D/7L0D_mol2/ligand/7L0D_0EN.pdb
 63 65 0 0 0
SMALL
GASTEIGER

@<TRIPOS>ATOM
      1  O1         4.9410  -13.9980   21.5120 O.2   401  0EN401     -0.2662
      2  C1         6.0190  -14.2530   21.9300 C.2   401  0EN401      0.2870
      3  C4         6.3930  -15.7600   22.1150 C.ar  401  0EN401      0.1896
      4  C5         7.3970  -16.2750   22.9030 C.ar  401  0EN401     -0.0113
      5  C6         7.3560  -17.6330   22.8050 C.ar  401  0EN401     -0.0231
      6  C7         6.3240  -17.9700   21.9690 C.ar  401  0EN401      0.0928
      7  O3         5.7280  -16.8090   21.5510 O.2   401  0EN401     -0.4583
      8  N1         6.9080  -13.1090   22.2600 N.am  401  0EN401     -0.2488
      9  C8         8.2960  -13.2400   22.8510 C.ar  401  0EN401      0.0379
     10  C9         9.5510  -13.3920   21.9650 C.ar  401  0EN401     -0.0400
     11  C10       10.9460  -13.5090   22.6370 C.ar  401  0EN401     -0.0563
     12  C11       11.0720  -13.4670   24.1790 C.ar  401  0EN401     -0.0419
     13  C14       12.4660  -13.5840   24.8470 C.3   401  0EN401     -0.0127
     14  C15       12.7470  -12.2990   25.6530 C.3   401  0EN401     -0.0560
     15  C16       12.4750  -14.7890   25.7690 C.3   401  0EN401     -0.0560
     16  C17       13.5290  -13.7730   23.7360 C.3   401  0EN401     -0.0560
     17  C12        9.8160  -13.3050   25.0560 C.ar  401  0EN401     -0.0563
     18  C13        8.4220  -13.1870   24.3880 C.ar  401  0EN401     -0.0400
     19  C2         6.3330  -11.7830   22.0740 C.3   401  0EN401      0.1338
     20  C3         7.3170  -10.6610   22.4020 C.2   401  0EN401      0.2389
     21  N2         7.0180   -9.6250   23.4290 N.am  401  0EN401     -0.3087
     22  C23        8.0130   -8.5310   23.7220 C.3   401  0EN401      0.0262
     23  C24        9.4430   -9.1160   23.7800 C.3   401  0EN401     -0.0442
     24  C25        7.9410   -7.4510   22.6320 C.3   401  0EN401     -0.0442
     25  C26        7.6960   -7.8870   25.0860 C.3   401  0EN401     -0.0442
     26  O2         8.3220  -10.6110   21.7790 O.2   401  0EN401     -0.2734
     27  C18        5.9400  -11.4890   20.6200 C.ar  401  0EN401      0.0002
     28  C19        4.7690  -10.6000   20.3420 C.ar  401  0EN401     -0.0534
     29  C20        4.3990  -10.2990   18.9170 C.ar  401  0EN401     -0.0433
     30  C21        5.2280  -10.8940   17.7770 C.ar  401  0EN401      0.0276
     31  N3         6.4040  -11.7690   18.0730 N.ar  401  0EN401     -0.2629
     32  C22        6.7790  -12.0750   19.4830 C.ar  401  0EN401      0.0330
     33  H1         7.9980  -15.7820   23.4130 H     401  0EN401      0.0657
     34  H2         7.9280  -18.2290   23.2320 H     401  0EN401      0.0649
     35  H3         6.0730  -18.8320   21.7280 H     401  0EN401      0.1029
     36  H4         9.4730  -13.4130   21.0380 H     401  0EN401      0.0636
     37  H5        11.7080  -13.6050   22.1130 H     401  0EN401      0.0621
     38  H6        13.5910  -12.3890   26.1210 H     401  0EN401      0.0238
     39  H7        12.7910  -11.5410   25.0490 H     401  0EN401      0.0238
     40  H8        12.0340  -12.1590   26.2960 H     401  0EN401      0.0238
     41  H9        12.0100  -14.5700   26.5910 H     401  0EN401      0.0238
     42  H10       13.3920  -15.0340   25.9710 H     401  0EN401      0.0238
     43  H11       12.0300  -15.5320   25.3330 H     401  0EN401      0.0238
     44  H12       13.2920  -14.5380   23.1890 H     401  0EN401      0.0238
     45  H13       13.5640  -12.9780   23.1830 H     401  0EN401      0.0238
     46  H14       14.3980  -13.9230   24.1420 H     401  0EN401      0.0238
     47  H15        9.8950  -13.2780   25.9820 H     401  0EN401      0.0621
     48  H16        7.6610  -13.0860   24.9140 H     401  0EN401      0.0636
     49  H17        5.5660  -11.7980   22.6670 H     401  0EN401      0.0652
     50  H18        6.2720   -9.6500   23.8570 H     401  0EN401      0.1493
     51  H19       10.0140   -8.5230   24.2930 H     401  0EN401      0.0250
     52  H20        9.4180   -9.9880   24.2030 H     401  0EN401      0.0250
     53  H21        9.7930   -9.2030   22.8800 H     401  0EN401      0.0250
     54  H22        7.0860   -6.9950   22.6850 H     401  0EN401      0.0250
     55  H23        8.6580   -6.8100   22.7630 H     401  0EN401      0.0250
     56  H24        8.0330   -7.8650   21.7600 H     401  0EN401      0.0250
     57  H25        8.2050   -7.0670   25.1830 H     401  0EN401      0.0250
     58  H26        6.7480   -7.6870   25.1360 H     401  0EN401      0.0250
     59  H27        7.9340   -8.5020   25.7970 H     401  0EN401      0.0250
     60  H28        4.2760  -10.2380   21.0420 H     401  0EN401      0.0622
     61  H29        3.6690   -9.7550   18.7290 H     401  0EN401      0.0633
     62  H30        5.0000  -10.7090   16.8950 H     401  0EN401      0.0829
     63  H31        7.5130  -12.6140   19.6690 H     401  0EN401      0.0833
@<TRIPOS>BOND
     1    62    30    1
     2    30    31   ar
     3    30    29   ar
     4    31    32   ar
     5    61    29    1
     6    29    28   ar
     7    32    63    1
     8    32    27   ar
     9    28    27   ar
    10    28    60    1
    11    27    19    1
    12    36    10    1
    13     1     2    2
    14     7     6   ar
    15     7     3   ar
    16    35     6    1
    17    56    24    1
    18    26    20    2
    19     2     3    1
    20     2     8   am
    21    10    11   ar
    22    10     9   ar
    23     6     5   ar
    24    19     8    1
    25    19    20    1
    26    19    49    1
    27    37    11    1
    28     3     4   ar
    29     8     9    1
    30    20    21   am
    31    24    54    1
    32    24    55    1
    33    24    22    1
    34    11    12   ar
    35     5     4   ar
    36     5    34    1
    37     9    18   ar
    38    53    23    1
    39     4    33    1
    40    45    16    1
    41    44    16    1
    42    21    22    1
    43    21    50    1
    44    22    23    1
    45    22    25    1
    46    16    46    1
    47    16    13    1
    48    23    52    1
    49    23    51    1
    50    12    13    1
    51    12    17   ar
    52    18    48    1
    53    18    17   ar
    54    13    14    1
    55    13    15    1
    56    39    14    1
    57    17    47    1
    58    25    58    1
    59    25    57    1
    60    25    59    1
    61    43    15    1
    62    14    38    1
    63    14    40    1
    64    15    42    1
    65    15    41    1
