@<TRIPOS>MOLECULE
/home/pku/3cl/gett_pdb/7FR6/7FR6_mol2/ligand/7FR6_WX6.pdb
 35 37 0 0 0
SMALL
GASTEIGER

@<TRIPOS>ATOM
      1  C18      -24.9570   -7.3890  -20.8880 C.3   201  WX6201     -0.0371
      2  C19      -24.0240   -6.2020  -20.6500 C.3   201  WX6201      0.0150
      3  C11      -21.6750   -6.2700  -21.4470 C.2   201  WX6201      0.2488
      4  C16      -23.7980   -8.8990  -19.2280 C.3   201  WX6201     -0.0516
      5  C17      -25.1250   -8.3370  -19.7070 C.3   201  WX6201     -0.0516
      6  C15      -23.0740   -7.8960  -18.3440 C.3   201  WX6201     -0.0371
      7  C14      -22.0740   -7.0690  -19.1390 C.3   201  WX6201      0.0150
      8  C02      -18.7160   -3.7320  -19.5870 C.ar  201  WX6201      0.2952
      9  C04      -19.4410   -5.5090  -20.6090 C.ar  201  WX6201      0.1235
     10  C05      -20.1780   -6.5240  -21.2610 C.ar  201  WX6201      0.0674
     11  C06      -19.4840   -7.6620  -21.6740 C.ar  201  WX6201     -0.0293
     12  C07      -18.1100   -7.7460  -21.4320 C.ar  201  WX6201      0.0307
     13  C09      -18.1070   -5.6640  -20.4110 C.ar  201  WX6201      0.1612
     14  N03      -19.8040   -4.3060  -20.0930 N.ar  201  WX6201     -0.1928
     15  N08      -17.4470   -6.7780  -20.8210 N.ar  201  WX6201     -0.2358
     16  N10      -17.6830   -4.5420  -19.7730 N.ar  201  WX6201     -0.2928
     17  N13      -22.6290   -6.5280  -20.3720 N.am  201  WX6201     -0.2975
     18  O01      -18.6880   -2.4820  -18.9740 O.3   201  WX6201     -0.4796
     19  O12      -22.0420   -5.8120  -22.4750 O.2   201  WX6201     -0.2699
     20 H181      -24.5740   -7.9580  -21.7200 H     201  WX6201      0.0280
     21 H182      -25.9350   -7.0020  -21.1400 H     201  WX6201      0.0280
     22 H192      -24.4060   -5.6380  -19.8050 H     201  WX6201      0.0464
     23 H191      -24.0700   -5.5600  -21.5260 H     201  WX6201      0.0464
     24 H162      -23.1750   -9.1270  -20.0910 H     201  WX6201      0.0266
     25 H161      -23.9760   -9.8070  -18.6650 H     201  WX6201      0.0266
     26 H171      -25.7550   -9.1600  -20.0150 H     201  WX6201      0.0266
     27 H172      -25.6040   -7.8080  -18.8900 H     201  WX6201      0.0266
     28 H152      -22.5610   -8.4440  -17.5680 H     201  WX6201      0.0280
     29 H151      -23.7960   -7.2300  -17.8890 H     201  WX6201      0.0280
     30 H141      -21.7180   -6.2500  -18.5240 H     201  WX6201      0.0464
     31 H142      -21.2540   -7.7310  -19.3730 H     201  WX6201      0.0464
     32 H061      -19.9970   -8.4710  -22.1660 H     201  WX6201      0.0641
     33 H071      -17.5660   -8.6250  -21.7580 H     201  WX6201      0.0830
     34 H101      -16.7510   -4.3530  -19.4850 H     201  WX6201      0.1718
     35 H011      -19.4690   -2.0240  -19.2280 H     201  WX6201      0.2953
@<TRIPOS>BOND
     1    19     3    2
     2    32    11    1
     3    33    12    1
     4    20     1    1
     5    11    12   ar
     6    11    10   ar
     7    23     2    1
     8     3    10    1
     9     3    17   am
    10    12    15   ar
    11    10     9   ar
    12    21     1    1
    13     1     2    1
    14     1     5    1
    15    15    13   ar
    16     2    17    1
    17     2    22    1
    18     9    13   ar
    19     9    14   ar
    20    13    16   ar
    21    17     7    1
    22    14     8   ar
    23    24     4    1
    24    26     5    1
    25    16     8   ar
    26    16    34    1
    27     5     4    1
    28     5    27    1
    29     8    18    1
    30    31     7    1
    31    35    18    1
    32     4    25    1
    33     4     6    1
    34     7    30    1
    35     7     6    1
    36     6    29    1
    37     6    28    1
