WVG
  -OEChem-02242320043D

 38 40  0     1  0  0  0  0  0999 V2000
   -3.0680   -0.1670   -0.2000 C   0  0  0  0  0  0  0  0  0  0  0  0
    5.5280    0.4280   -0.1950 C   0  0  0  0  0  0  0  0  0  0  0  0
    4.2860   -0.3990   -0.4120 C   0  0  0  0  0  0  0  0  0  0  0  0
    3.0540    0.4190   -0.0230 C   0  0  0  0  0  0  0  0  0  0  0  0
    1.7940   -0.4200   -0.2430 C   0  0  1  0  0  0  0  0  0  0  0  0
    1.8030   -1.6170    0.7120 C   0  0  0  0  0  0  0  0  0  0  0  0
    0.5110   -2.4170    0.5270 C   0  0  0  0  0  0  0  0  0  0  0  0
   -0.6900   -1.5030    0.7790 C   0  0  0  0  0  0  0  0  0  0  0  0
    0.5550    0.4360    0.0310 C   0  0  0  0  0  0  0  0  0  0  0  0
   -1.7940    0.4010   -0.0470 C   0  0  0  0  0  0  0  0  0  0  0  0
   -2.7960    2.4470    0.3160 C   0  0  0  0  0  0  0  0  0  0  0  0
   -4.1960    0.6640   -0.0760 C   0  0  0  0  0  0  0  0  0  0  0  0
   -4.9170   -1.4150   -0.5120 C   0  0  0  0  0  0  0  0  0  0  0  0
   -3.5780   -1.5070   -0.4830 C   0  0  0  0  0  0  0  0  0  0  0  0
   -0.6540   -0.3750   -0.1600 N   0  0  2  0  0  0  0  0  0  0  0  0
   -1.7100    1.7030    0.2080 N   0  0  0  0  0  0  0  0  0  0  0  0
   -4.0090    1.9580    0.1810 N   0  0  0  0  0  0  0  0  0  0  0  0
   -5.2990   -0.1220   -0.2660 N   0  0  0  0  0  0  0  0  0  0  0  0
    5.4360    1.5560    0.2280 O   0  0  0  0  0  0  0  0  0  0  0  0
    6.7350   -0.0900   -0.4720 O   0  0  0  0  0  0  0  0  0  0  0  0
    4.2180   -0.6820   -1.4630 H   0  0  0  0  0  0  0  0  0  0  0  0
    4.3360   -1.2970    0.2040 H   0  0  0  0  0  0  0  0  0  0  0  0
    3.1230    0.7030    1.0270 H   0  0  0  0  0  0  0  0  0  0  0  0
    3.0050    1.3170   -0.6390 H   0  0  0  0  0  0  0  0  0  0  0  0
    1.7700   -0.7760   -1.2730 H   0  0  0  0  0  0  0  0  0  0  0  0
    2.6610   -2.2520    0.4910 H   0  0  0  0  0  0  0  0  0  0  0  0
    1.8670   -1.2610    1.7400 H   0  0  0  0  0  0  0  0  0  0  0  0
    0.4660   -2.8050   -0.4910 H   0  0  0  0  0  0  0  0  0  0  0  0
    0.4920   -3.2460    1.2340 H   0  0  0  0  0  0  0  0  0  0  0  0
   -1.6120   -2.0670    0.6340 H   0  0  0  0  0  0  0  0  0  0  0  0
   -0.6520   -1.1270    1.8010 H   0  0  0  0  0  0  0  0  0  0  0  0
    0.5880    0.8040    1.0570 H   0  0  0  0  0  0  0  0  0  0  0  0
    0.5380    1.2810   -0.6570 H   0  0  0  0  0  0  0  0  0  0  0  0
   -2.6830    3.5010    0.5250 H   0  0  0  0  0  0  0  0  0  0  0  0
   -5.5920   -2.2380   -0.6970 H   0  0  0  0  0  0  0  0  0  0  0  0
   -2.9900   -2.4000   -0.6380 H   0  0  0  0  0  0  0  0  0  0  0  0
   -6.2170    0.1910   -0.2350 H   0  0  0  0  0  0  0  0  0  0  0  0
    7.5020    0.4790   -0.3160 H   0  0  0  0  0  0  0  0  0  0  0  0
  2  3  1  0  0  0  0
  3  4  1  0  0  0  0
  2 19  2  0  0  0  0
  2 20  1  0  0  0  0
  4  5  1  0  0  0  0
  5  6  1  0  0  0  0
  5  9  1  0  0  0  0
  6  7  1  0  0  0  0
  7  8  1  0  0  0  0
  9 15  1  0  0  0  0
  8 15  1  0  0  0  0
 10 15  1  0  0  0  0
 10 16  2  0  0  0  0
  1 10  1  0  0  0  0
 11 16  1  0  0  0  0
  1 14  1  0  0  0  0
 13 14  2  0  0  0  0
  1 12  2  0  0  0  0
 13 18  1  0  0  0  0
 11 17  2  0  0  0  0
 12 18  1  0  0  0  0
 12 17  1  0  0  0  0
  3 21  1  0  0  0  0
  3 22  1  0  0  0  0
  4 23  1  0  0  0  0
  4 24  1  0  0  0  0
  5 25  1  0  0  0  0
  6 26  1  0  0  0  0
  6 27  1  0  0  0  0
  7 28  1  0  0  0  0
  7 29  1  0  0  0  0
  8 30  1  0  0  0  0
  8 31  1  0  0  0  0
  9 32  1  0  0  0  0
  9 33  1  0  0  0  0
 11 34  1  0  0  0  0
 13 35  1  0  0  0  0
 14 36  1  0  0  0  0
 18 37  1  0  0  0  0
 20 38  1  0  0  0  0
M  END
> <OPENEYE_ISO_SMILES>
c1c[nH]c2c1c(ncn2)[N@@]3CCC[C@@H](C3)CCC(=O)O

> <OPENEYE_INCHI>
InChI=1S/C14H18N4O2/c19-12(20)4-3-10-2-1-7-18(8-10)14-11-5-6-15-13(11)16-9-17-14/h5-6,9-10H,1-4,7-8H2,(H,19,20)(H,15,16,17)/t10-/m1/s1

> <OPENEYE_INCHIKEY>
ADFCTPSWZLLXQI-SNVBAGLBSA-N

> <FORMULA>
C14H18N4O2

$$$$
