WYY
  -OEChem-02242320043D

 38 40  0     1  0  0  0  0  0999 V2000
   -2.5200   -0.5160    0.0760 C   0  0  0  0  0  0  0  0  0  0  0  0
    4.5980   -0.9330   -0.7090 C   0  0  0  0  0  0  0  0  0  0  0  0
    3.9840    0.2990   -0.0950 C   0  0  0  0  0  0  0  0  0  0  0  0
    2.4900    0.3410   -0.4220 C   0  0  0  0  0  0  0  0  0  0  0  0
    1.8670    1.5920    0.2020 C   0  0  2  0  0  0  0  0  0  0  0  0
    1.9410    1.4930    1.7280 C   0  0  0  0  0  0  0  0  0  0  0  0
    1.1240    0.2840    2.1930 C   0  0  0  0  0  0  0  0  0  0  0  0
   -0.3190    0.4310    1.7060 C   0  0  0  0  0  0  0  0  0  0  0  0
    0.4030    1.7010   -0.2280 C   0  0  0  0  0  0  0  0  0  0  0  0
   -1.6320    0.5240   -0.2410 C   0  0  0  0  0  0  0  0  0  0  0  0
   -3.3060    1.5180   -1.4800 C   0  0  0  0  0  0  0  0  0  0  0  0
   -3.8280   -0.4670   -0.4390 C   0  0  0  0  0  0  0  0  0  0  0  0
   -3.6390   -2.3390    0.7840 C   0  0  0  0  0  0  0  0  0  0  0  0
   -2.4370   -1.7440    0.8640 C   0  0  0  0  0  0  0  0  0  0  0  0
   -0.3360    0.5210    0.2410 N   0  0  2  0  0  0  0  0  0  0  0  0
   -2.0690    1.5110   -1.0170 N   0  0  0  0  0  0  0  0  0  0  0  0
   -4.1720    0.5650   -1.2080 N   0  0  0  0  0  0  0  0  0  0  0  0
   -4.4810   -1.5810    0.0110 N   0  0  0  0  0  0  0  0  0  0  0  0
    5.9080   -1.1800   -0.5510 O   0  0  0  0  0  0  0  0  0  0  0  0
    3.9110   -1.6990   -1.3430 O   0  0  0  0  0  0  0  0  0  0  0  0
    4.1190    0.2710    0.9860 H   0  0  0  0  0  0  0  0  0  0  0  0
    4.4700    1.1860   -0.4990 H   0  0  0  0  0  0  0  0  0  0  0  0
    2.3560    0.3680   -1.5030 H   0  0  0  0  0  0  0  0  0  0  0  0
    2.0050   -0.5470   -0.0170 H   0  0  0  0  0  0  0  0  0  0  0  0
    2.4120    2.4750   -0.1330 H   0  0  0  0  0  0  0  0  0  0  0  0
    2.9790    1.3720    2.0350 H   0  0  0  0  0  0  0  0  0  0  0  0
    1.5330    2.4010    2.1720 H   0  0  0  0  0  0  0  0  0  0  0  0
    1.5570   -0.6270    1.7810 H   0  0  0  0  0  0  0  0  0  0  0  0
    1.1380    0.2340    3.2820 H   0  0  0  0  0  0  0  0  0  0  0  0
   -0.9000   -0.4350    2.0240 H   0  0  0  0  0  0  0  0  0  0  0  0
   -0.7550    1.3360    2.1300 H   0  0  0  0  0  0  0  0  0  0  0  0
   -0.0370    2.6000    0.2050 H   0  0  0  0  0  0  0  0  0  0  0  0
    0.3460    1.7570   -1.3150 H   0  0  0  0  0  0  0  0  0  0  0  0
   -3.6200    2.3390   -2.1070 H   0  0  0  0  0  0  0  0  0  0  0  0
   -3.9040   -3.2700    1.2620 H   0  0  0  0  0  0  0  0  0  0  0  0
   -1.5750   -2.1050    1.4050 H   0  0  0  0  0  0  0  0  0  0  0  0
   -5.4030   -1.8060   -0.1910 H   0  0  0  0  0  0  0  0  0  0  0  0
    6.2560   -1.9830   -0.9640 H   0  0  0  0  0  0  0  0  0  0  0  0
  2 20  2  0  0  0  0
  2 19  1  0  0  0  0
  2  3  1  0  0  0  0
  3  4  1  0  0  0  0
  4  5  1  0  0  0  0
  5  6  1  0  0  0  0
  6  7  1  0  0  0  0
  5  9  1  0  0  0  0
  7  8  1  0  0  0  0
  9 15  1  0  0  0  0
  8 15  1  0  0  0  0
 10 15  1  0  0  0  0
 10 16  2  0  0  0  0
  1 10  1  0  0  0  0
 11 16  1  0  0  0  0
  1 14  1  0  0  0  0
 13 14  2  0  0  0  0
  1 12  2  0  0  0  0
 13 18  1  0  0  0  0
 11 17  2  0  0  0  0
 12 17  1  0  0  0  0
 12 18  1  0  0  0  0
  3 21  1  0  0  0  0
  3 22  1  0  0  0  0
  4 23  1  0  0  0  0
  4 24  1  0  0  0  0
  5 25  1  0  0  0  0
  6 26  1  0  0  0  0
  6 27  1  0  0  0  0
  7 28  1  0  0  0  0
  7 29  1  0  0  0  0
  8 30  1  0  0  0  0
  8 31  1  0  0  0  0
  9 32  1  0  0  0  0
  9 33  1  0  0  0  0
 11 34  1  0  0  0  0
 13 35  1  0  0  0  0
 14 36  1  0  0  0  0
 18 37  1  0  0  0  0
 19 38  1  0  0  0  0
M  END
> <OPENEYE_ISO_SMILES>
c1c[nH]c2c1c(ncn2)[N@@]3CCC[C@H](C3)CCC(=O)O

> <OPENEYE_INCHI>
InChI=1S/C14H18N4O2/c19-12(20)4-3-10-2-1-7-18(8-10)14-11-5-6-15-13(11)16-9-17-14/h5-6,9-10H,1-4,7-8H2,(H,19,20)(H,15,16,17)/t10-/m0/s1

> <OPENEYE_INCHIKEY>
ADFCTPSWZLLXQI-JTQLQIEISA-N

> <FORMULA>
C14H18N4O2

$$$$
