@<TRIPOS>MOLECULE
/home/pku/3cl/gett_pdb/5SR3/5SR3_mol2/ligand/5SR3_QYJ.pdb
 49 52 0 0 0
SMALL
GASTEIGER

@<TRIPOS>ATOM
      1  C18      -49.6680  -28.9780    6.6780 C.ar  201  QYJ201      0.0348
      2  C16      -49.7860  -29.0310    4.3050 C.ar  201  QYJ201     -0.0479
      3  C17      -50.4350  -28.9810    5.5190 C.ar  201  QYJ201     -0.0397
      4  C15      -48.4090  -29.1170    4.2900 C.ar  201  QYJ201      0.0368
      5  C14      -47.7460  -29.2160    2.9330 C.2   201  QYJ201      0.2445
      6  C12      -45.9570  -30.2240    1.6340 C.3   201  QYJ201      0.0580
      7  C11      -45.7710  -31.6110    0.9900 C.ar  201  QYJ201     -0.0199
      8  C10      -46.5570  -32.7740    0.8640 C.ar  201  QYJ201     -0.0563
      9  C20      -51.6550  -29.0690    8.2660 C.2   201  QYJ201      0.3041
     10  C02      -43.9010  -29.8820    3.1230 C.2   201  QYJ201      0.0926
     11  C03      -44.5960  -29.6100    1.7920 C.3   201  QYJ201      0.0343
     12  C04      -43.8490  -30.1680    0.6300 C.3   201  QYJ201     -0.0132
     13  C05      -44.5340  -31.5070    0.3640 C.ar  201  QYJ201     -0.0003
     14  C06      -44.0300  -32.5560   -0.3670 C.ar  201  QYJ201      0.1204
     15  C08      -44.7920  -33.7190   -0.4840 C.ar  201  QYJ201     -0.0199
     16  C09      -46.0500  -33.8440    0.1200 C.ar  201  QYJ201     -0.0580
     17  C22      -53.2790  -29.2770   10.1850 C.3   201  QYJ201      0.0247
     18  C23      -53.4250  -29.4640   11.6910 C.3   201  QYJ201     -0.0328
     19  C24      -53.5470  -30.6760   10.7710 C.3   201  QYJ201     -0.0328
     20  C26      -48.2900  -29.1180    6.6510 C.ar  201  QYJ201     -0.0397
     21  C27      -47.6350  -29.1720    5.4380 C.ar  201  QYJ201     -0.0479
     22  N13      -46.5920  -30.1050    2.8850 N.am  201  QYJ201     -0.3039
     23  N19      -50.2410  -29.0170    7.9940 N.am  201  QYJ201     -0.2695
     24  N21      -51.9230  -29.2070    9.6770 N.am  201  QYJ201     -0.2963
     25  O01      -43.1990  -28.9260    3.5720 O.co2 201  QYJ201     -0.8473
     26  O07      -42.7660  -32.3700   -0.9630 O.3   201  QYJ201     -0.5065
     27  O25      -52.4990  -28.9410    7.4440 O.2   201  QYJ201     -0.2525
     28  O28      -48.1930  -28.7030    1.9650 O.2   201  QYJ201     -0.2702
     29  O29      -44.0160  -30.9940    3.7310 O.co2 201  QYJ201     -0.3086
     30 H161      -50.2530  -29.0170    3.4990 H     201  QYJ201      0.0626
     31 H171      -51.3600  -28.9450    5.5410 H     201  QYJ201      0.0636
     32 H121      -46.4190  -29.6950    0.9770 H     201  QYJ201      0.0555
     33 H101      -47.4080  -32.8320    1.2660 H     201  QYJ201      0.0621
     34 H031      -44.6840  -28.6780    1.6880 H     201  QYJ201      0.0393
     35 H041      -42.9220  -30.3220    0.8800 H     201  QYJ201      0.0322
     36 H042      -43.9470  -29.5870   -0.1270 H     201  QYJ201      0.0322
     37 H081      -44.4580  -34.4270   -0.9630 H     201  QYJ201      0.0654
     38 H091      -46.5450  -34.6400    0.0190 H     201  QYJ201      0.0619
     39 H221      -54.0240  -28.8880    9.7010 H     201  QYJ201      0.0499
     40 H231      -54.2560  -29.1470   12.0650 H     201  QYJ201      0.0284
     41 H232      -52.5990  -29.4080   12.1920 H     201  QYJ201      0.0284
     42 H241      -54.4450  -31.0280   10.6580 H     201  QYJ201      0.0284
     43 H242      -52.7890  -31.2900   10.7850 H     201  QYJ201      0.0284
     44 H261      -47.8160  -29.1570    7.4460 H     201  QYJ201      0.0636
     45 H271      -46.6990  -29.2300    5.3910 H     201  QYJ201      0.0626
     46 H131      -46.2580  -30.4710    3.5920 H     201  QYJ201      0.1496
     47 H191      -49.7080  -29.1500    8.6430 H     201  QYJ201      0.1564
     48 H211      -51.2630  -29.2880   10.2130 H     201  QYJ201      0.1505
     49 H071      -42.7890  -32.6420   -1.7710 H     201  QYJ201      0.2921
@<TRIPOS>UNITY_ATOM_ATTR
25 1
charge -1
@<TRIPOS>BOND
     1    49    26    1
     2    26    14    1
     3    37    15    1
     4    15    14   ar
     5    15    16   ar
     6    14    13   ar
     7    36    12    1
     8    38    16    1
     9    16     8   ar
    10    13    12    1
    11    13     7   ar
    12    12    35    1
    13    12    11    1
    14     8     7   ar
    15     8    33    1
    16    32     6    1
    17     7     6    1
    18     6    11    1
    19     6    22    1
    20    34    11    1
    21    11    10    1
    22    28     5    2
    23    22     5   am
    24    22    46    1
    25     5     4    1
    26    10    25   ar
    27    10    29   ar
    28    30     2    1
    29     4     2   ar
    30     4    21   ar
    31     2     3   ar
    32    45    21    1
    33    21    20   ar
    34     3    31    1
    35     3     1   ar
    36    20     1   ar
    37    20    44    1
    38     1    23    1
    39    27     9    2
    40    23     9   am
    41    23    47    1
    42     9    24   am
    43    24    17    1
    44    24    48    1
    45    39    17    1
    46    17    19    1
    47    17    18    1
    48    42    19    1
    49    19    43    1
    50    19    18    1
    51    18    40    1
    52    18    41    1
