@<TRIPOS>MOLECULE
/home/pku/3cl/gett_pdb/7TGR/7TGR_mol2/ligand/7TGR_K36.pdb
 29 30 0 0 0
SMALL
GASTEIGER

@<TRIPOS>ATOM
      1  C7       -14.2120    3.8510    0.1230 C.3   401  K36401      0.2368
      2  O8       -14.9010    2.8200   -0.6140 O.3   401  K36401     -0.4285
      3  C9       -15.0800    1.6940    0.1280 C.2   401  K36401      0.4218
      4  O10      -14.9020    1.7290    1.3460 O.2   401  K36401     -0.2245
      5  C1       -12.8110    3.7620   -0.0630 C.ar  401  K36401      0.0213
      6  C2       -12.2440    2.7210   -0.8000 C.ar  401  K36401     -0.0007
      7  C3       -10.8670    2.6300   -0.9870 C.ar  401  K36401     -0.0002
      8  C4       -10.0340    3.5960   -0.4370 C.ar  401  K36401     -0.0000
      9  C5       -10.5850    4.6400    0.2980 C.ar  401  K36401     -0.0002
     10  C6       -11.9650    4.7260    0.4860 C.ar  401  K36401     -0.0007
     11  N11      -15.5740    0.5950   -0.4510 N.am  401  K36401     -0.1611
     12  C12      -15.7790   -0.6270    0.3130 C.3   401  K36401      0.1761
     13  C17      -14.3750   -1.0920    0.7070 C.2   401  K36401      0.2614
     14  O18      -13.4350   -0.9180   -0.0640 O.2   401  K36401     -0.2715
     15  C13      -16.4420   -1.6880   -0.5730 C.3   401  K36401      0.0312
     16  C14      -17.8500   -1.2430   -1.0110 C.3   401  K36401      0.0022
     17  C15      -18.5090   -2.3470   -1.8540 C.3   401  K36401      0.0001
     18  C16      -18.7280   -0.8890    0.1970 C.3   401  K36401      0.0001
     19  N19      -14.2580   -1.6350    1.9240 N.am  401  K36401     -0.2030
     20  C20      -12.9890   -2.1390    2.4810 C.3   401  K36401      0.1287
     21  C21      -13.0850   -3.6220    2.9230 C.3   401  K36401      0.2036
     22  O22      -11.7370   -4.0990    3.1000 O.3   401  K36401     -0.2185
     23  C24      -12.4190   -1.2390    3.6120 C.3   401  K36401      0.0335
     24  C25      -11.9630    0.1930    3.2330 C.3   401  K36401      0.0818
     25  C26      -10.5660    0.0360    2.7510 C.3   401  K36401      0.0326
     26  C27      -10.2840    1.4540    2.4540 C.3   401  K36401      0.1156
     27  N28      -10.5390    1.8530    3.8770 N.am  401  K36401     -0.2054
     28  C29      -11.5640    1.0590    4.2710 C.2   401  K36401      0.2410
     29  O30      -12.0750    1.0790    5.3920 O.2   401  K36401     -0.2734
@<TRIPOS>BOND
     1    17    16    1
     2    16    15    1
     3    16    18    1
     4     7     6   ar
     5     7     8   ar
     6     6     5   ar
     7     2     1    1
     8     2     3    1
     9    15    12    1
    10    11     3   am
    11    11    12    1
    12     8     9   ar
    13    14    13    2
    14     5     1    1
    15     5    10   ar
    16     3     4    2
    17     9    10   ar
    18    12    13    1
    19    13    19   am
    20    19    20    1
    21    26    25    1
    22    26    27    1
    23    20    21    1
    24    20    23    1
    25    25    24    1
    26    21    22    1
    27    24    23    1
    28    24    28    1
    29    27    28   am
    30    28    29    2
