RQC
  -OEChem-02242320043D

 40 42  0     1  0  0  0  0  0999 V2000
   -4.0910    0.8290    0.0490 C   0  0  0  0  0  0  0  0  0  0  0  0
   -4.1360   -1.5730    0.0920 C   0  0  0  0  0  0  0  0  0  0  0  0
   -4.8950   -0.3660   -0.5210 C   0  0  1  0  0  0  0  0  0  0  0  0
   -2.6690   -1.0950    0.0900 C   0  0  0  0  0  0  0  0  0  0  0  0
   -1.6040    1.1740    0.0140 C   0  0  0  0  0  0  0  0  0  0  0  0
   -0.2230    0.5700    0.0180 C   0  0  0  0  0  0  0  0  0  0  0  0
    0.8220    1.6870   -0.0260 C   0  0  0  0  0  0  0  0  0  0  0  0
   -6.3250   -0.3300   -0.0460 C   0  0  0  0  0  0  0  0  0  0  0  0
    3.0320   -3.2880    0.0990 C   0  0  0  0  0  0  0  0  0  0  0  0
    5.7710   -0.9240    0.0030 C   0  0  0  0  0  0  0  0  0  0  0  0
    4.6760   -0.0400   -0.0130 C   0  0  0  0  0  0  0  0  0  0  0  0
    4.5300    1.4150   -0.0540 C   0  0  0  0  0  0  0  0  0  0  0  0
    2.2030    1.0840   -0.0220 C   0  0  0  0  0  0  0  0  0  0  0  0
    3.5100   -0.8210    0.0210 C   0  0  0  0  0  0  0  0  0  0  0  0
    3.9120   -2.1180    0.0560 N   0  0  0  0  0  0  0  0  0  0  0  0
    5.3120   -2.1450    0.0430 N   0  0  0  0  0  0  0  0  0  0  0  0
    3.2730    1.9170   -0.0570 N   0  0  0  0  0  0  0  0  0  0  0  0
   -2.6880    0.3750    0.0490 N   0  0  0  0  0  0  0  0  0  0  0  0
    2.3130   -0.2120    0.0150 N   0  0  0  0  0  0  0  0  0  0  0  0
    5.5030    2.1470   -0.0850 O   0  0  0  0  0  0  0  0  0  0  0  0
   -1.7390    2.3780   -0.0200 O   0  0  0  0  0  0  0  0  0  0  0  0
   -7.1850   -1.2850   -0.4340 O   0  0  0  0  0  0  0  0  0  0  0  0
   -6.6980    0.5590    0.6830 O   0  0  0  0  0  0  0  0  0  0  0  0
   -4.2060    1.7040   -0.5900 H   0  0  0  0  0  0  0  0  0  0  0  0
   -4.4160    1.0550    1.0650 H   0  0  0  0  0  0  0  0  0  0  0  0
   -4.4780   -1.7670    1.1080 H   0  0  0  0  0  0  0  0  0  0  0  0
   -4.2530   -2.4610   -0.5300 H   0  0  0  0  0  0  0  0  0  0  0  0
   -4.8470   -0.3860   -1.6090 H   0  0  0  0  0  0  0  0  0  0  0  0
   -2.1680   -1.4330    0.9980 H   0  0  0  0  0  0  0  0  0  0  0  0
   -2.1520   -1.4860   -0.7860 H   0  0  0  0  0  0  0  0  0  0  0  0
   -0.0860   -0.0200    0.9240 H   0  0  0  0  0  0  0  0  0  0  0  0
   -0.1050   -0.0720   -0.8550 H   0  0  0  0  0  0  0  0  0  0  0  0
    0.6860    2.2770   -0.9320 H   0  0  0  0  0  0  0  0  0  0  0  0
    0.7040    2.3290    0.8470 H   0  0  0  0  0  0  0  0  0  0  0  0
    2.8040   -3.6090   -0.9170 H   0  0  0  0  0  0  0  0  0  0  0  0
    3.5300   -4.0980    0.6330 H   0  0  0  0  0  0  0  0  0  0  0  0
    2.1070   -3.0290    0.6140 H   0  0  0  0  0  0  0  0  0  0  0  0
    6.8130   -0.6400   -0.0200 H   0  0  0  0  0  0  0  0  0  0  0  0
    3.1370    2.8770   -0.0830 H   0  0  0  0  0  0  0  0  0  0  0  0
   -8.0920   -1.2190   -0.1040 H   0  0  0  0  0  0  0  0  0  0  0  0
  8 23  2  0  0  0  0
  8 22  1  0  0  0  0
  3  8  1  0  0  0  0
  5 21  2  0  0  0  0
  1  3  1  0  0  0  0
  1 18  1  0  0  0  0
  2  3  1  0  0  0  0
  5 18  1  0  0  0  0
  5  6  1  0  0  0  0
  4 18  1  0  0  0  0
  6  7  1  0  0  0  0
  7 13  1  0  0  0  0
  2  4  1  0  0  0  0
 13 17  1  0  0  0  0
 12 17  1  0  0  0  0
 13 19  2  0  0  0  0
 12 20  2  0  0  0  0
 11 12  1  0  0  0  0
 14 19  1  0  0  0  0
 11 14  2  0  0  0  0
 10 11  1  0  0  0  0
 14 15  1  0  0  0  0
 10 16  2  0  0  0  0
  9 15  1  0  0  0  0
 15 16  1  0  0  0  0
  1 24  1  0  0  0  0
  1 25  1  0  0  0  0
  2 26  1  0  0  0  0
  2 27  1  0  0  0  0
  3 28  1  0  0  0  0
  4 29  1  0  0  0  0
  4 30  1  0  0  0  0
  6 31  1  0  0  0  0
  6 32  1  0  0  0  0
  7 33  1  0  0  0  0
  7 34  1  0  0  0  0
  9 35  1  0  0  0  0
  9 36  1  0  0  0  0
  9 37  1  0  0  0  0
 10 38  1  0  0  0  0
 17 39  1  0  0  0  0
 22 40  1  0  0  0  0
M  END
> <OPENEYE_ISO_SMILES>
Cn1c2c(cn1)c(=O)[nH]c(n2)CCC(=O)N3CC[C@H](C3)C(=O)O

> <OPENEYE_INCHI>
InChI=1S/C14H17N5O4/c1-18-12-9(6-15-18)13(21)17-10(16-12)2-3-11(20)19-5-4-8(7-19)14(22)23/h6,8H,2-5,7H2,1H3,(H,22,23)(H,16,17,21)/t8-/m1/s1

> <OPENEYE_INCHIKEY>
DQMGMSFESKLRGX-MRVPVSSYSA-N

> <FORMULA>
C14H17N5O4

$$$$
