AH2
  -OEChem-02242320013D

 23 23  0     1  0  0  0  0  0999 V2000
   -2.4850   -1.2450    0.0230 O   0  0  0  0  0  0  0  0  0  0  0  0
   -0.0980   -0.9210   -0.2050 C   0  0  1  0  0  0  0  0  0  0  0  0
    1.0690   -0.0570    0.2780 C   0  0  1  0  0  0  0  0  0  0  0  0
    0.1750   -2.2950    0.0780 O   0  0  0  0  0  0  0  0  0  0  0  0
    2.3370   -0.4380   -0.4880 C   0  0  0  0  0  0  0  0  0  0  0  0
    0.7680    1.3210    0.0470 O   0  0  0  0  0  0  0  0  0  0  0  0
    3.4500    0.2850    0.0430 O   0  0  0  0  0  0  0  0  0  0  0  0
   -1.3770   -0.4930    0.5220 C   0  0  1  0  0  0  0  0  0  0  0  0
   -1.6170    0.9990    0.2750 C   0  0  2  0  0  0  0  0  0  0  0  0
   -1.8280    1.2240   -1.1210 O   0  0  0  0  0  0  0  0  0  0  0  0
   -0.3900    1.7900    0.7400 C   0  0  0  0  0  0  0  0  0  0  0  0
   -3.3290   -1.0250    0.4400 H   0  0  0  0  0  0  0  0  0  0  0  0
   -0.2290   -0.7890   -1.2790 H   0  0  0  0  0  0  0  0  0  0  0  0
    1.2260   -0.2210    1.3440 H   0  0  0  0  0  0  0  0  0  0  0  0
   -0.5250   -2.9010   -0.2000 H   0  0  0  0  0  0  0  0  0  0  0  0
    2.5170   -1.5080   -0.3840 H   0  0  0  0  0  0  0  0  0  0  0  0
    2.2130   -0.1910   -1.5420 H   0  0  0  0  0  0  0  0  0  0  0  0
    4.2900    0.0930   -0.3970 H   0  0  0  0  0  0  0  0  0  0  0  0
   -1.2660   -0.6740    1.5910 H   0  0  0  0  0  0  0  0  0  0  0  0
   -2.4950    1.3240    0.8320 H   0  0  0  0  0  0  0  0  0  0  0  0
   -1.9860    2.1500   -1.3500 H   0  0  0  0  0  0  0  0  0  0  0  0
   -0.2530    1.6500    1.8130 H   0  0  0  0  0  0  0  0  0  0  0  0
   -0.5370    2.8490    0.5270 H   0  0  0  0  0  0  0  0  0  0  0  0
  6 11  1  0  0  0  0
  9 11  1  0  0  0  0
  3  6  1  0  0  0  0
  8  9  1  0  0  0  0
  9 10  1  0  0  0  0
  3  5  1  0  0  0  0
  2  3  1  0  0  0  0
  2  8  1  0  0  0  0
  1  8  1  0  0  0  0
  5  7  1  0  0  0  0
  2  4  1  0  0  0  0
  1 12  1  0  0  0  0
  2 13  1  0  0  0  0
  3 14  1  0  0  0  0
  4 15  1  0  0  0  0
  5 16  1  0  0  0  0
  5 17  1  0  0  0  0
  7 18  1  0  0  0  0
  8 19  1  0  0  0  0
  9 20  1  0  0  0  0
 10 21  1  0  0  0  0
 11 22  1  0  0  0  0
 11 23  1  0  0  0  0
M  END
> <OPENEYE_ISO_SMILES>
C1[C@H]([C@H]([C@@H]([C@H](O1)CO)O)O)O

> <OPENEYE_INCHI>
InChI=1S/C6H12O5/c7-1-4-6(10)5(9)3(8)2-11-4/h3-10H,1-2H2/t3-,4-,5-,6-/m1/s1

> <OPENEYE_INCHIKEY>
MPCAJMNYNOGXPB-KVTDHHQDSA-N

> <FORMULA>
C6H12O5

$$$$
