GAL
  -OEChem-02242320023D

 24 24  0     1  0  0  0  0  0999 V2000
    0.5160    1.4090   -0.1910 C   0  0  2  0  0  0  0  0  0  0  0  0
    1.5220    0.3020    0.1360 C   0  0  1  0  0  0  0  0  0  0  0  0
    1.1030   -0.9860   -0.5780 C   0  0  2  0  0  0  0  0  0  0  0  0
   -0.3220   -1.3520   -0.1520 C   0  0  2  0  0  0  0  0  0  0  0  0
   -1.2580   -0.1820   -0.4680 C   0  0  1  0  0  0  0  0  0  0  0  0
   -2.6720   -0.5160    0.0090 C   0  0  0  0  0  0  0  0  0  0  0  0
    0.8700    2.5990    0.5170 O   0  0  0  0  0  0  0  0  0  0  0  0
    2.8230    0.6930   -0.3080 O   0  0  0  0  0  0  0  0  0  0  0  0
    1.9950   -2.0440   -0.2200 O   0  0  0  0  0  0  0  0  0  0  0  0
   -0.3480   -1.6180    1.2510 O   0  0  0  0  0  0  0  0  0  0  0  0
   -0.7930    0.9920    0.2020 O   0  0  0  0  0  0  0  0  0  0  0  0
   -3.5670    0.5250   -0.3890 O   0  0  0  0  0  0  0  0  0  0  0  0
    0.5280    1.6060   -1.2630 H   0  0  0  0  0  0  0  0  0  0  0  0
    1.5400    0.1320    1.2130 H   0  0  0  0  0  0  0  0  0  0  0  0
    1.1330   -0.8310   -1.6570 H   0  0  0  0  0  0  0  0  0  0  0  0
   -0.6500   -2.2370   -0.6980 H   0  0  0  0  0  0  0  0  0  0  0  0
   -1.2690   -0.0060   -1.5440 H   0  0  0  0  0  0  0  0  0  0  0  0
   -2.9920   -1.4590   -0.4340 H   0  0  0  0  0  0  0  0  0  0  0  0
   -2.6780   -0.6040    1.0950 H   0  0  0  0  0  0  0  0  0  0  0  0
    0.2740    3.3430    0.3570 H   0  0  0  0  0  0  0  0  0  0  0  0
    3.1510    1.5060    0.1000 H   0  0  0  0  0  0  0  0  0  0  0  0
    2.9180   -1.8760   -0.4550 H   0  0  0  0  0  0  0  0  0  0  0  0
    0.2270   -2.3470    1.5240 H   0  0  0  0  0  0  0  0  0  0  0  0
   -4.4840    0.3790   -0.1190 H   0  0  0  0  0  0  0  0  0  0  0  0
  1  2  1  0  0  0  0
  1  7  1  0  0  0  0
  1 11  1  0  0  0  0
  1 13  1  0  0  0  0
  2  3  1  0  0  0  0
  2  8  1  0  0  0  0
  2 14  1  0  0  0  0
  3  4  1  0  0  0  0
  3  9  1  0  0  0  0
  3 15  1  0  0  0  0
  4  5  1  0  0  0  0
  4 10  1  0  0  0  0
  4 16  1  0  0  0  0
  5  6  1  0  0  0  0
  5 11  1  0  0  0  0
  5 17  1  0  0  0  0
  6 12  1  0  0  0  0
  6 18  1  0  0  0  0
  6 19  1  0  0  0  0
  7 20  1  0  0  0  0
  8 21  1  0  0  0  0
  9 22  1  0  0  0  0
 10 23  1  0  0  0  0
 12 24  1  0  0  0  0
M  END
> <OPENEYE_ISO_SMILES>
C([C@@H]1[C@@H]([C@@H]([C@H]([C@@H](O1)O)O)O)O)O

> <OPENEYE_INCHI>
InChI=1S/C6H12O6/c7-1-2-3(8)4(9)5(10)6(11)12-2/h2-11H,1H2/t2-,3+,4+,5-,6-/m1/s1

> <OPENEYE_INCHIKEY>
WQZGKKKJIJFFOK-FPRJBGLDSA-N

> <FORMULA>
C6H12O6

$$$$
