@<TRIPOS>MOLECULE
/home/pku/3cl/gett_pdb/7KOA/7KOA_mol2/ligand/7KOA_GTA.pdb
 51 56 0 0 0
SMALL
GASTEIGER

@<TRIPOS>ATOM
      1  N2        87.1180  -31.5120   44.8780 N.pl3 301  GTA301     -0.0859
      2  O6        84.7220  -32.4970   41.1150 O.2   301  GTA301     -0.2636
      3  C6        85.0950  -31.6220   41.8870 C.ar  301  GTA301      0.2978
      4  C5        84.8180  -30.2590   41.8420 C.ar  301  GTA301      0.1399
      5  N7        84.0710  -29.4860   40.9510 N.pl3 301  GTA301     -0.2828
      6  C7        83.3610  -29.9680   39.7690 C.3   301  GTA301      0.1140
      7  C8        84.1200  -28.2180   41.3570 C.3   301  GTA301      0.1917
      8  N9        84.8490  -28.1180   42.4460 N.pl3 301  GTA301     -0.2503
      9  C4        85.3120  -29.3980   42.7860 C.ar  301  GTA301      0.1558
     10  N3        86.0850  -29.7290   43.8370 N.ar  301  GTA301     -0.1946
     11  C2        86.3560  -31.0250   43.8930 C.ar  301  GTA301      0.2604
     12  N1        85.8900  -31.9240   42.9700 N.ar  301  GTA301     -0.1712
     13  O3A       87.1870  -24.4050   41.4500 O.3   301  GTA301     -0.2175
     14  C1A       85.1320  -26.8660   43.1790 C.3   301  GTA301      0.2283
     15  C2A       86.5070  -26.3220   42.8210 C.3   301  GTA301      0.2310
     16  C3A       86.1760  -25.3760   41.6870 C.3   301  GTA301      0.2158
     17  C4A       84.8560  -24.7590   42.1760 C.3   301  GTA301      0.1799
     18  C5A       83.9370  -24.1920   41.1170 C.3   301  GTA301      0.1813
     19  O4A       84.1890  -25.8570   42.8550 O.3   301  GTA301     -0.3326
     20  O2A       87.0280  -25.6380   43.9420 O.3   301  GTA301     -0.2158
     21  P1        83.3750  -24.8130   38.5850 P.3   301  GTA301      0.2189
     22  O11       81.9420  -24.4520   38.3710 O.3   301  GTA301     -0.4371
     23  O12       84.4050  -23.8180   38.1640 O.2   301  GTA301     -0.5170
     24  O13       83.6790  -26.1920   37.8250 O.3   301  GTA301     -0.2701
     25  O15       83.6040  -25.2170   40.1280 O.3   301  GTA301     -0.3112
     26  P2        85.0360  -26.9890   37.5310 P.3   301  GTA301      0.2237
     27  O22       84.7020  -28.3310   36.9630 O.2   301  GTA301     -0.5168
     28  O21       85.8860  -26.8930   38.7530 O.3   301  GTA301     -0.4369
     29  O23       85.7120  -26.1330   36.3590 O.3   301  GTA301     -0.2701
     30  P3        87.2210  -26.1230   35.8030 P.3   301  GTA301      0.2189
     31  O32       87.5490  -27.4710   35.2520 O.2   301  GTA301     -0.5170
     32  O31       88.1200  -25.5530   36.8490 O.3   301  GTA301     -0.4371
     33  O33       87.1150  -25.0750   34.6050 O.3   301  GTA301     -0.3112
     34  C5B       86.0590  -25.2180   33.6360 C.3   301  GTA301      0.1813
     35  C4B       86.3800  -24.3510   32.4460 C.3   301  GTA301      0.1801
     36  O4B       85.9960  -22.9810   32.7350 O.3   301  GTA301     -0.3306
     37  C3B       87.8610  -24.2680   32.0520 C.3   301  GTA301      0.2161
     38  O3B       88.2630  -25.3370   31.2030 O.3   301  GTA301     -0.2175
     39  C2B       87.8930  -22.9250   31.3250 C.3   301  GTA301      0.2337
     40  O2B       87.4240  -23.0360   29.9980 O.3   301  GTA301     -0.2155
     41  C1B       86.9670  -22.0970   32.2170 C.3   301  GTA301      0.2409
     42  N9C       87.6660  -21.4590   33.3380 N.ar  301  GTA301     -0.2693
     43  C8C       88.0280  -22.0230   34.5400 C.ar  301  GTA301      0.1816
     44  N7C       88.6520  -21.1770   35.3280 N.ar  301  GTA301     -0.2193
     45  C5C       88.7040  -19.9930   34.6010 C.ar  301  GTA301      0.1518
     46  C6C       89.2400  -18.7220   34.8870 C.ar  301  GTA301      0.1919
     47  N6C       89.8500  -18.4180   36.0290 N.pl3 301  GTA301     -0.1054
     48  N1C       89.1200  -17.7650   33.9330 N.ar  301  GTA301     -0.2040
     49  C2C       88.5060  -18.0790   32.7840 C.ar  301  GTA301      0.2016
     50  N3C       87.9660  -19.2360   32.4070 N.ar  301  GTA301     -0.2048
     51  C4C       88.1020  -20.1610   33.3730 C.ar  301  GTA301      0.1692
@<TRIPOS>BOND
     1    40    39    1
     2    38    37    1
     3    39    37    1
     4    39    41    1
     5    37    35    1
     6    41    36    1
     7    41    42    1
     8    50    49   ar
     9    50    51   ar
    10    35    36    1
    11    35    34    1
    12    49    48   ar
    13    42    51   ar
    14    42    43   ar
    15    51    45   ar
    16    34    33    1
    17    48    46   ar
    18    43    44   ar
    19    45    46   ar
    20    45    44   ar
    21    33    30    1
    22    46    47    1
    23    31    30    2
    24    30    29    1
    25    30    32    1
    26    29    26    1
    27    27    26    2
    28    26    24    1
    29    26    28    1
    30    24    21    1
    31    23    21    2
    32    22    21    1
    33    21    25    1
    34     6     5    1
    35    25    18    1
    36     5     7    1
    37     5     4    1
    38     2     3    2
    39    18    17    1
    40     7     8    1
    41    13    16    1
    42    16    17    1
    43    16    15    1
    44     4     3   ar
    45     4     9   ar
    46     3    12   ar
    47    17    19    1
    48     8     9    1
    49     8    14    1
    50     9    10   ar
    51    15    14    1
    52    15    20    1
    53    19    14    1
    54    12    11   ar
    55    10    11   ar
    56    11     1    1
