QVC
  -OEChem-02242320033D

 32 35  0     0  0  0  0  0  0999 V2000
   -4.2530   -0.6740    0.0020 C   0  0  0  0  0  0  0  0  0  0  0  0
   -2.9250   -2.5660    0.0020 C   0  0  0  0  0  0  0  0  0  0  0  0
   -1.7580   -1.8230    0.0000 C   0  0  0  0  0  0  0  0  0  0  0  0
   -1.8360   -0.4310   -0.0010 C   0  0  0  0  0  0  0  0  0  0  0  0
    0.6390   -0.2060   -0.0030 C   0  0  0  0  0  0  0  0  0  0  0  0
   -0.6120    0.4050   -0.0030 C   0  0  0  0  0  0  0  0  0  0  0  0
   -3.6100    1.5290   -0.0010 C   0  0  0  0  0  0  0  0  0  0  0  0
   -4.9520    1.4610   -0.0010 C   0  0  0  0  0  0  0  0  0  0  0  0
    6.7220   -0.0830   -0.0000 C   0  0  0  0  0  0  0  0  0  0  0  0
    5.2320   -0.3100   -0.0010 C   0  0  0  0  0  0  0  0  0  0  0  0
    3.1340   -0.0050    0.0010 C   0  0  0  0  0  0  0  0  0  0  0  0
    1.7820    0.5970    0.0010 C   0  0  0  0  0  0  0  0  0  0  0  0
    1.6150    1.9870    0.0040 C   0  0  0  0  0  0  0  0  0  0  0  0
    0.3380    2.5130    0.0040 C   0  0  0  0  0  0  0  0  0  0  0  0
   -3.1160    0.1540   -0.0000 C   0  0  0  0  0  0  0  0  0  0  0  0
    4.6310   -1.4630   -0.0020 N   0  0  0  0  0  0  0  0  0  0  0  0
    4.2850    0.6410    0.0040 N   0  0  0  0  0  0  0  0  0  0  0  0
   -0.7200    1.7280   -0.0050 N   0  0  0  0  0  0  0  0  0  0  0  0
   -4.1100   -1.9930    0.0040 N   0  0  0  0  0  0  0  0  0  0  0  0
   -5.3520    0.1520   -0.0020 N   0  0  0  0  0  0  0  0  0  0  0  0
    3.4270   -1.3140   -0.0020 O   0  0  0  0  0  0  0  0  0  0  0  0
   -2.8620   -3.6440    0.0040 H   0  0  0  0  0  0  0  0  0  0  0  0
   -0.7970   -2.3160    0.0010 H   0  0  0  0  0  0  0  0  0  0  0  0
    0.7250   -1.2830   -0.0010 H   0  0  0  0  0  0  0  0  0  0  0  0
   -3.0110    2.4280    0.0000 H   0  0  0  0  0  0  0  0  0  0  0  0
   -5.6160    2.3130   -0.0010 H   0  0  0  0  0  0  0  0  0  0  0  0
    7.0810   -0.0330    1.0280 H   0  0  0  0  0  0  0  0  0  0  0  0
    7.2150   -0.9050   -0.5180 H   0  0  0  0  0  0  0  0  0  0  0  0
    6.9470    0.8550   -0.5090 H   0  0  0  0  0  0  0  0  0  0  0  0
    2.4750    2.6410    0.0070 H   0  0  0  0  0  0  0  0  0  0  0  0
    0.2040    3.5850    0.0070 H   0  0  0  0  0  0  0  0  0  0  0  0
   -6.2740   -0.1480   -0.0030 H   0  0  0  0  0  0  0  0  0  0  0  0
  9 10  1  0  0  0  0
 10 16  2  0  0  0  0
 16 21  1  0  0  0  0
 11 21  1  0  0  0  0
 11 17  2  0  0  0  0
 11 12  1  0  0  0  0
 12 13  2  0  0  0  0
 13 14  1  0  0  0  0
 14 18  2  0  0  0  0
  6 18  1  0  0  0  0
  5  6  2  0  0  0  0
  4  6  1  0  0  0  0
  3  4  2  0  0  0  0
  2  3  1  0  0  0  0
  2 19  2  0  0  0  0
  1 19  1  0  0  0  0
  1 20  1  0  0  0  0
  8 20  1  0  0  0  0
  7  8  2  0  0  0  0
  7 15  1  0  0  0  0
 10 17  1  0  0  0  0
  5 12  1  0  0  0  0
  4 15  1  0  0  0  0
  1 15  2  0  0  0  0
  2 22  1  0  0  0  0
  3 23  1  0  0  0  0
  5 24  1  0  0  0  0
  7 25  1  0  0  0  0
  8 26  1  0  0  0  0
  9 27  1  0  0  0  0
  9 28  1  0  0  0  0
  9 29  1  0  0  0  0
 13 30  1  0  0  0  0
 14 31  1  0  0  0  0
 20 32  1  0  0  0  0
M  END
> <OPENEYE_ISO_SMILES>
Cc1nc(on1)c2ccnc(c2)c3ccnc4c3cc[nH]4

> <OPENEYE_INCHI>
InChI=1S/C15H11N5O/c1-9-19-15(21-20-9)10-2-5-16-13(8-10)11-3-6-17-14-12(11)4-7-18-14/h2-8H,1H3,(H,17,18)

> <OPENEYE_INCHIKEY>
DUKMUYCXRFBQQS-UHFFFAOYSA-N

> <FORMULA>
C15H11N5O

$$$$
