@<TRIPOS>MOLECULE
/home/pku/3cl/gett_pdb/5SOM/5SOM_mol2/ligand/5SOM_WVY.pdb
 42 44 0 0 0
SMALL
GASTEIGER

@<TRIPOS>ATOM
      1  C13      -44.6620  -35.3550   -2.8280 C.ar  201  WVY201      0.0498
      2  C17      -49.2770  -28.8340    5.4940 C.3   201  WVY201      0.0697
      3  C20      -50.1470  -28.9620    8.1540 C.3   201  WVY201      0.0116
      4  C22      -50.7850  -29.2710    5.7250 C.2   201  WVY201      0.2194
      5  C02      -47.1380  -29.1870    2.6360 C.2   201  WVY201      0.3115
      6  C03      -45.7250  -29.5450    2.2210 C.3   201  WVY201      0.0700
      7  C04      -45.6430  -30.7870    1.3430 C.ar  201  WVY201     -0.0366
      8  C05      -46.6290  -31.7590    1.3900 C.ar  201  WVY201     -0.0560
      9  C06      -46.5340  -32.8770    0.5800 C.ar  201  WVY201     -0.0360
     10  C07      -45.4470  -33.0120   -0.2630 C.ar  201  WVY201      0.0654
     11  C08      -44.4600  -32.0500   -0.3040 C.ar  201  WVY201     -0.0360
     12  C09      -44.5640  -30.9300    0.4930 C.ar  201  WVY201     -0.0560
     13  C11      -45.9920  -35.2720   -1.0420 C.ar  201  WVY201      0.0312
     14  C12      -45.5930  -36.0500   -2.0800 C.ar  201  WVY201     -0.0238
     15  C16      -48.8620  -29.6030    4.1900 C.3   201  WVY201      0.1035
     16  C18      -48.3130  -29.0980    6.5260 C.3   201  WVY201     -0.0374
     17  C19      -48.8530  -29.5680    7.7930 C.3   201  WVY201     -0.0366
     18  N10      -45.3260  -34.1480   -1.1390 N.ar  201  WVY201     -0.2399
     19  N14      -44.5060  -34.1690   -2.2430 N.ar  201  WVY201     -0.1748
     20  N21      -51.2390  -29.3290    7.1690 N.am  201  WVY201     -0.3150
     21  O01      -47.8910  -28.7540    1.8330 O.2   201  WVY201     -0.2505
     22  O15      -47.5040  -29.3740    3.9710 O.3   201  WVY201     -0.4636
     23  O23      -51.5130  -29.5270    4.8260 O.2   201  WVY201     -0.2754
     24 H131      -44.1560  -35.7010   -3.7220 H     201  WVY201      0.0848
     25 H171      -49.2560  -27.7730    5.2680 H     201  WVY201      0.0428
     26 H202      -50.0220  -27.8950    8.1840 H     201  WVY201      0.0462
     27 H201      -50.4310  -29.3110    9.1350 H     201  WVY201      0.0462
     28 H032      -45.1190  -29.6760    3.1040 H     201  WVY201      0.0426
     29 H031      -45.3370  -28.7100    1.6520 H     201  WVY201      0.0426
     30 H051      -47.4710  -31.6490    2.0570 H     201  WVY201      0.0621
     31 H061      -47.3000  -33.6450    0.6090 H     201  WVY201      0.0639
     32 H081      -43.6280  -32.1570   -0.9950 H     201  WVY201      0.0639
     33 H091      -43.8010  -30.1680    0.4490 H     201  WVY201      0.0621
     34 H111      -46.7190  -35.5520   -0.2900 H     201  WVY201      0.0831
     35 H121      -45.9580  -37.0380   -2.2640 H     201  WVY201      0.0648
     36 H161      -49.0840  -30.6730    4.2580 H     201  WVY201      0.0705
     37 H162      -49.4340  -29.1580    3.3950 H     201  WVY201      0.0705
     38 H182      -47.6030  -29.8360    6.1690 H     201  WVY201      0.0274
     39 H181      -47.7640  -28.1790    6.7190 H     201  WVY201      0.0274
     40 H192      -49.0240  -30.6270    7.7670 H     201  WVY201      0.0280
     41 H191      -48.1250  -29.3810    8.5690 H     201  WVY201      0.0280
     42 H211      -52.1640  -29.5930    7.4320 H     201  WVY201      0.1487
@<TRIPOS>BOND
     1    24     1    1
     2     1    19   ar
     3     1    14   ar
     4    35    14    1
     5    19    18   ar
     6    14    13   ar
     7    18    13   ar
     8    18    10    1
     9    13    34    1
    10    32    11    1
    11    11    10   ar
    12    11    12   ar
    13    10     9   ar
    14    33    12    1
    15    12     7   ar
    16     9    31    1
    17     9     8   ar
    18     7     8   ar
    19     7     6    1
    20     8    30    1
    21    29     6    1
    22    21     5    2
    23     6     5    1
    24     6    28    1
    25     5    22    1
    26    37    15    1
    27    22    15    1
    28    15    36    1
    29    15     2    1
    30    23     4    2
    31    25     2    1
    32     2     4    1
    33     2    16    1
    34     4    20   am
    35    38    16    1
    36    16    39    1
    37    16    17    1
    38    20    42    1
    39    20     3    1
    40    40    17    1
    41    17     3    1
    42    17    41    1
    43     3    26    1
    44     3    27    1
