@<TRIPOS>MOLECULE
/home/pku/3cl/gett_pdb/5RSX/5RSX_mol2/ligand/5RSX_YTX.pdb
 22 22 0 0 0
SMALL
GASTEIGER

@<TRIPOS>ATOM
      1  C1       -44.7120  -27.3500    0.5350 C.ar  201  YTX201      0.1615
      2  C2       -43.8690  -28.4470    0.7020 C.ar  201  YTX201     -0.0128
      3  C3       -44.4760  -29.6690    0.8800 C.ar  201  YTX201     -0.0382
      4  O1       -43.4530  -31.0650    3.4390 O.co2 201  YTX201     -0.5495
      5  O2       -44.4720  -32.7040    2.4160 O.co2 201  YTX201     -0.5495
      6  C4       -43.6610  -30.9600    1.0500 C.3   201  YTX201      0.0121
      7  C5       -43.8770  -31.5970    2.4170 C.2   201  YTX201      0.0460
      8  C6       -45.7920  -29.7850    0.8800 C.ar  201  YTX201     -0.0545
      9  C7       -46.6330  -28.6640    0.7170 C.ar  201  YTX201     -0.0163
     10  C8       -46.0770  -27.4850    0.5220 C.ar  201  YTX201      0.1585
     11  O3       -46.8570  -26.3990    0.4460 O.3   201  YTX201     -0.5033
     12  O        -44.1960  -26.0700    0.4090 O.3   201  YTX201     -0.4915
     13  C        -42.8370  -25.9850    0.0890 C.3   201  YTX201      0.0790
     14  H1       -42.9430  -28.3620    0.7050 H     201  YTX201      0.0658
     15  H3       -42.7190  -30.7540    0.9440 H     201  YTX201      0.0373
     16  H4       -43.9250  -31.5920    0.3630 H     201  YTX201      0.0373
     17  H5       -46.1730  -30.6270    0.9820 H     201  YTX201      0.0622
     18  H6       -47.5580  -28.7580    0.7240 H     201  YTX201      0.0655
     19  H7       -46.4950  -25.7600    0.8740 H     201  YTX201      0.2923
     20  H8       -42.3010  -26.3130    0.8280 H     201  YTX201      0.0660
     21  H9       -42.6520  -26.5060   -0.7080 H     201  YTX201      0.0660
     22  H10      -42.6080  -25.0570   -0.0760 H     201  YTX201      0.0660
@<TRIPOS>UNITY_ATOM_ATTR
4 1
charge -1
@<TRIPOS>BOND
     1    21    13    1
     2    22    13    1
     3    13    12    1
     4    13    20    1
     5    16     6    1
     6    12     1    1
     7    11    10    1
     8    11    19    1
     9    10     1   ar
    10    10     9   ar
    11     1     2   ar
    12     2    14    1
    13     2     3   ar
    14     9    18    1
    15     9     8   ar
    16     8     3   ar
    17     8    17    1
    18     3     6    1
    19    15     6    1
    20     6     7    1
    21     5     7   ar
    22     7     4   ar
