LF6
  -OEChem-02242320033D

 29 30  0     1  0  0  0  0  0999 V2000
    3.1710    0.2580    0.9760 N   0  0  0  0  0  0  0  0  0  0  0  0
    2.2820   -0.2100   -1.0480 N   0  0  0  0  0  0  0  0  0  0  0  0
   -1.2430   -0.7010   -0.0220 C   0  0  2  0  0  0  0  0  0  0  0  0
   -1.9720   -2.0560   -0.1950 C   0  0  0  0  0  0  0  0  0  0  0  0
   -3.4160   -1.7710    0.2660 C   0  0  0  0  0  0  0  0  0  0  0  0
   -3.6380   -0.2570    0.1030 C   0  0  0  0  0  0  0  0  0  0  0  0
   -2.3220    0.3250   -0.4510 C   0  0  1  0  0  0  0  0  0  0  0  0
    4.6640    0.2460   -0.9930 C   0  0  0  0  0  0  0  0  0  0  0  0
    3.3130    0.0880   -0.3430 C   0  0  0  0  0  0  0  0  0  0  0  0
    1.5220   -0.0040    1.3010 S   0  0  0  0  0  0  0  0  0  0  0  0
    1.1090   -0.3250   -0.3950 C   0  0  0  0  0  0  0  0  0  0  0  0
   -0.0720   -0.6200   -0.8990 N   0  0  0  0  0  0  0  0  0  0  0  0
   -2.0370    1.6930    0.1710 C   0  0  0  0  0  0  0  0  0  0  0  0
   -2.9750    2.6480   -0.3290 O   0  0  0  0  0  0  0  0  0  0  0  0
    3.8660    0.4790    1.6160 H   0  0  0  0  0  0  0  0  0  0  0  0
   -0.9560   -0.5470    1.0190 H   0  0  0  0  0  0  0  0  0  0  0  0
   -1.9590   -2.3650   -1.2400 H   0  0  0  0  0  0  0  0  0  0  0  0
   -1.5140   -2.8190    0.4350 H   0  0  0  0  0  0  0  0  0  0  0  0
   -4.1220   -2.3210   -0.3560 H   0  0  0  0  0  0  0  0  0  0  0  0
   -3.5370   -2.0560    1.3110 H   0  0  0  0  0  0  0  0  0  0  0  0
   -4.4520   -0.0730   -0.5980 H   0  0  0  0  0  0  0  0  0  0  0  0
   -3.8680    0.1920    1.0690 H   0  0  0  0  0  0  0  0  0  0  0  0
   -2.3650    0.4000   -1.5370 H   0  0  0  0  0  0  0  0  0  0  0  0
    4.5740    0.0700   -2.0650 H   0  0  0  0  0  0  0  0  0  0  0  0
    5.0340    1.2570   -0.8200 H   0  0  0  0  0  0  0  0  0  0  0  0
    5.3600   -0.4740   -0.5630 H   0  0  0  0  0  0  0  0  0  0  0  0
   -2.1310    1.6260    1.2550 H   0  0  0  0  0  0  0  0  0  0  0  0
   -1.0260    2.0070   -0.0870 H   0  0  0  0  0  0  0  0  0  0  0  0
   -2.8540    3.5400    0.0230 H   0  0  0  0  0  0  0  0  0  0  0  0
  2 11  1  0  0  0  0
  2  9  2  0  0  0  0
 11 12  2  0  0  0  0
  3 12  1  0  0  0  0
  3  4  1  0  0  0  0
  4  5  1  0  0  0  0
  8  9  1  0  0  0  0
 10 11  1  0  0  0  0
  1  9  1  0  0  0  0
  3  7  1  0  0  0  0
  5  6  1  0  0  0  0
  6  7  1  0  0  0  0
  1 10  1  0  0  0  0
  7 13  1  0  0  0  0
 13 14  1  0  0  0  0
  1 15  1  0  0  0  0
  3 16  1  0  0  0  0
  4 17  1  0  0  0  0
  4 18  1  0  0  0  0
  5 19  1  0  0  0  0
  5 20  1  0  0  0  0
  6 21  1  0  0  0  0
  6 22  1  0  0  0  0
  7 23  1  0  0  0  0
  8 24  1  0  0  0  0
  8 25  1  0  0  0  0
  8 26  1  0  0  0  0
 13 27  1  0  0  0  0
 13 28  1  0  0  0  0
 14 29  1  0  0  0  0
M  END
> <OPENEYE_ISO_SMILES>
Cc1[nH]s/c(=N\[C@@H]2CCC[C@H]2CO)/n1

> <OPENEYE_INCHI>
InChI=1S/C9H15N3OS/c1-6-10-9(14-12-6)11-8-4-2-3-7(8)5-13/h7-8,13H,2-5H2,1H3,(H,10,11,12)/t7-,8+/m0/s1

> <OPENEYE_INCHIKEY>
QUKZXHGECCPEIZ-JGVFFNPUSA-N

> <FORMULA>
C9H15N3OS

$$$$
