XF7
  -OEChem-02242320043D

 55 59  0     0  0  0  0  0  0999 V2000
   -1.6100   -1.4260    0.5920 C   0  0  0  0  0  0  0  0  0  0  0  0
   -2.1870    0.8770    0.1520 C   0  0  0  0  0  0  0  0  0  0  0  0
   -1.2400   -0.0610    0.5240 C   0  0  0  0  0  0  0  0  0  0  0  0
    0.1440    0.3570    0.8480 C   0  0  0  0  0  0  0  0  0  0  0  0
    0.3870    1.1690    1.9560 C   0  0  0  0  0  0  0  0  0  0  0  0
   -3.2160   -3.1570    0.3700 C   0  0  0  0  0  0  0  0  0  0  0  0
    1.6780    1.5580    2.2550 C   0  0  0  0  0  0  0  0  0  0  0  0
    2.7320    1.1430    1.4590 C   0  0  0  0  0  0  0  0  0  0  0  0
    2.4970    0.3350    0.3560 C   0  0  0  0  0  0  0  0  0  0  0  0
    4.8400    0.3750   -0.0470 C   0  0  0  0  0  0  0  0  0  0  0  0
    5.8550   -0.1680   -1.0190 C   0  0  0  0  0  0  0  0  0  0  0  0
    1.2060   -0.0640    0.0510 C   0  0  0  0  0  0  0  0  0  0  0  0
   -3.0300   -3.9920   -0.7240 C   0  0  0  0  0  0  0  0  0  0  0  0
   -3.8580   -5.8020    0.4370 C   0  0  0  0  0  0  0  0  0  0  0  0
   -4.0720   -5.0350    1.5680 C   0  0  0  0  0  0  0  0  0  0  0  0
   -3.7490   -3.6880    1.5420 C   0  0  0  0  0  0  0  0  0  0  0  0
   -3.8060   -0.8910   -0.0690 C   0  0  0  0  0  0  0  0  0  0  0  0
   -3.4940    0.4460   -0.1490 C   0  0  0  0  0  0  0  0  0  0  0  0
   -4.5300    1.4310   -0.5510 C   0  0  0  0  0  0  0  0  0  0  0  0
   -4.3740    2.2320   -1.7720 C   0  0  0  0  0  0  0  0  0  0  0  0
   -5.6520    1.6100    0.2010 C   0  0  0  0  0  0  0  0  0  0  0  0
   -6.4260    3.2510   -1.3120 C   0  0  0  0  0  0  0  0  0  0  0  0
    5.4460   -0.9650   -2.0720 C   0  0  0  0  0  0  0  0  0  0  0  0
    6.3770   -1.4640   -2.9640 C   0  0  0  0  0  0  0  0  0  0  0  0
    7.7180   -1.1670   -2.8030 C   0  0  0  0  0  0  0  0  0  0  0  0
    8.1280   -0.3700   -1.7500 C   0  0  0  0  0  0  0  0  0  0  0  0
    7.1950    0.1340   -0.8610 C   0  0  0  0  0  0  0  0  0  0  0  0
   -2.8680   -1.8030    0.2970 N   0  0  0  0  0  0  0  0  0  0  0  0
   -3.3520   -5.2690   -0.6580 N   0  0  0  0  0  0  0  0  0  0  0  0
   -5.3420    3.1140   -2.0960 N   0  0  0  0  0  0  0  0  0  0  0  0
   -6.5880    2.5230   -0.1950 N   0  0  0  0  0  0  0  0  0  0  0  0
   -0.7840   -2.2640    0.9130 O   0  0  0  0  0  0  0  0  0  0  0  0
    3.5340   -0.0690   -0.4230 O   0  0  0  0  0  0  0  0  0  0  0  0
   -3.3900    2.1030   -2.4770 O   0  0  0  0  0  0  0  0  0  0  0  0
   -7.2850    4.0530   -1.6250 O   0  0  0  0  0  0  0  0  0  0  0  0
    1.9800    2.5690    3.6340 Cl  0  0  0  0  0  0  0  0  0  0  0  0
    7.7090    1.1360    0.4610 Cl  0  0  0  0  0  0  0  0  0  0  0  0
   -1.9280    1.9240    0.0940 H   0  0  0  0  0  0  0  0  0  0  0  0
   -0.4330    1.4950    2.5780 H   0  0  0  0  0  0  0  0  0  0  0  0
    3.7390    1.4540    1.6950 H   0  0  0  0  0  0  0  0  0  0  0  0
    5.0700    0.0180    0.9570 H   0  0  0  0  0  0  0  0  0  0  0  0
    4.8710    1.4650   -0.0610 H   0  0  0  0  0  0  0  0  0  0  0  0
    1.0220   -0.6930   -0.8080 H   0  0  0  0  0  0  0  0  0  0  0  0
   -2.6180   -3.5920   -1.6380 H   0  0  0  0  0  0  0  0  0  0  0  0
   -4.1080   -6.8520    0.4510 H   0  0  0  0  0  0  0  0  0  0  0  0
   -4.4870   -5.4800    2.4600 H   0  0  0  0  0  0  0  0  0  0  0  0
   -3.9050   -3.0650    2.4110 H   0  0  0  0  0  0  0  0  0  0  0  0
   -4.8090   -1.2200   -0.3010 H   0  0  0  0  0  0  0  0  0  0  0  0
   -5.8000    1.0330    1.1020 H   0  0  0  0  0  0  0  0  0  0  0  0
    4.3990   -1.1980   -2.1980 H   0  0  0  0  0  0  0  0  0  0  0  0
    6.0570   -2.0870   -3.7860 H   0  0  0  0  0  0  0  0  0  0  0  0
    8.4450   -1.5610   -3.4970 H   0  0  0  0  0  0  0  0  0  0  0  0
    9.1750   -0.1380   -1.6250 H   0  0  0  0  0  0  0  0  0  0  0  0
   -5.2560    3.6520   -2.8980 H   0  0  0  0  0  0  0  0  0  0  0  0
   -7.3860    2.6490    0.3420 H   0  0  0  0  0  0  0  0  0  0  0  0
 25 26  2  0  0  0  0
 24 25  1  0  0  0  0
 26 27  1  0  0  0  0
 23 24  2  0  0  0  0
 27 37  1  0  0  0  0
 11 27  2  0  0  0  0
 11 23  1  0  0  0  0
 10 11  1  0  0  0  0
 10 33  1  0  0  0  0
  9 33  1  0  0  0  0
  8  9  2  0  0  0  0
  7  8  1  0  0  0  0
  9 12  1  0  0  0  0
  7 36  1  0  0  0  0
  5  7  2  0  0  0  0
  4 12  2  0  0  0  0
  4  5  1  0  0  0  0
  3  4  1  0  0  0  0
  1 32  2  0  0  0  0
  1  3  1  0  0  0  0
  2  3  2  0  0  0  0
  1 28  1  0  0  0  0
  2 18  1  0  0  0  0
  6 28  1  0  0  0  0
 17 28  1  0  0  0  0
  6 13  2  0  0  0  0
  6 16  1  0  0  0  0
 13 29  1  0  0  0  0
 17 18  2  0  0  0  0
 18 19  1  0  0  0  0
 15 16  2  0  0  0  0
 14 29  2  0  0  0  0
 14 15  1  0  0  0  0
 19 21  2  0  0  0  0
 21 31  1  0  0  0  0
 19 20  1  0  0  0  0
 22 31  1  0  0  0  0
 20 34  2  0  0  0  0
 20 30  1  0  0  0  0
 22 30  1  0  0  0  0
 22 35  2  0  0  0  0
  2 38  1  0  0  0  0
  5 39  1  0  0  0  0
  8 40  1  0  0  0  0
 10 41  1  0  0  0  0
 10 42  1  0  0  0  0
 12 43  1  0  0  0  0
 13 44  1  0  0  0  0
 14 45  1  0  0  0  0
 15 46  1  0  0  0  0
 16 47  1  0  0  0  0
 17 48  1  0  0  0  0
 21 49  1  0  0  0  0
 23 50  1  0  0  0  0
 24 51  1  0  0  0  0
 25 52  1  0  0  0  0
 26 53  1  0  0  0  0
 30 54  1  0  0  0  0
 31 55  1  0  0  0  0
M  END
> <OPENEYE_ISO_SMILES>
c1ccc(c(c1)COc2cc(cc(c2)Cl)c3cc(cn(c3=O)c4cccnc4)c5c[nH]c(=O)[nH]c5=O)Cl

> <OPENEYE_INCHI>
InChI=1S/C27H18Cl2N4O4/c28-19-8-17(9-21(11-19)37-15-16-4-1-2-6-24(16)29)22-10-18(23-13-31-27(36)32-25(23)34)14-33(26(22)35)20-5-3-7-30-12-20/h1-14H,15H2,(H2,31,32,34,36)

> <OPENEYE_INCHIKEY>
NFXZAFCZOMISJH-UHFFFAOYSA-N

> <FORMULA>
C27H18Cl2N4O4

$$$$
