RZG
  -OEChem-02242320043D

 23 23  0     0  0  0  0  0  0999 V2000
    0.8460   -1.3420    0.0160 C   0  0  0  0  0  0  0  0  0  0  0  0
    5.2700    0.7120   -0.0450 C   0  0  0  0  0  0  0  0  0  0  0  0
    3.0890   -0.2580   -0.0150 C   0  0  0  0  0  0  0  0  0  0  0  0
    1.6140   -0.1750    0.0120 C   0  0  0  0  0  0  0  0  0  0  0  0
    0.9820    1.0690    0.0320 C   0  0  0  0  0  0  0  0  0  0  0  0
   -0.3960    1.1390    0.0560 C   0  0  0  0  0  0  0  0  0  0  0  0
   -1.1510   -0.0200    0.0610 C   0  0  0  0  0  0  0  0  0  0  0  0
   -0.5300   -1.2570    0.0400 C   0  0  0  0  0  0  0  0  0  0  0  0
   -3.4270    0.1170   -1.4800 N   0  0  0  0  0  0  0  0  0  0  0  0
    3.8270    0.8690   -0.0190 O   0  0  0  0  0  0  0  0  0  0  0  0
    3.6360   -1.3420   -0.0320 O   0  0  0  0  0  0  0  0  0  0  0  0
   -3.3700   -1.1510    0.6360 O   0  0  0  0  0  0  0  0  0  0  0  0
   -3.2300    1.3440    0.6520 O   0  0  0  0  0  0  0  0  0  0  0  0
   -2.9090    0.0780    0.0930 S   0  0  0  0  0  0  0  0  0  0  0  0
    1.3290   -2.3070   -0.0040 H   0  0  0  0  0  0  0  0  0  0  0  0
    5.7420    1.6950   -0.0460 H   0  0  0  0  0  0  0  0  0  0  0  0
    5.5910    0.1550    0.8350 H   0  0  0  0  0  0  0  0  0  0  0  0
    5.5600    0.1690   -0.9450 H   0  0  0  0  0  0  0  0  0  0  0  0
    1.5700    1.9750    0.0290 H   0  0  0  0  0  0  0  0  0  0  0  0
   -0.8860    2.1010    0.0720 H   0  0  0  0  0  0  0  0  0  0  0  0
   -1.1250   -2.1580    0.0440 H   0  0  0  0  0  0  0  0  0  0  0  0
   -2.7820    0.0860   -2.2040 H   0  0  0  0  0  0  0  0  0  0  0  0
   -4.3750    0.1720   -1.6770 H   0  0  0  0  0  0  0  0  0  0  0  0
  3 11  2  0  0  0  0
  1  8  2  0  0  0  0
  1  4  1  0  0  0  0
  2 10  1  0  0  0  0
  3 10  1  0  0  0  0
  3  4  1  0  0  0  0
  7  8  1  0  0  0  0
  4  5  2  0  0  0  0
 12 14  2  0  0  0  0
  7 14  1  0  0  0  0
  6  7  2  0  0  0  0
  5  6  1  0  0  0  0
  9 14  1  0  0  0  0
 13 14  2  0  0  0  0
  1 15  1  0  0  0  0
  2 16  1  0  0  0  0
  2 17  1  0  0  0  0
  2 18  1  0  0  0  0
  5 19  1  0  0  0  0
  6 20  1  0  0  0  0
  8 21  1  0  0  0  0
  9 22  1  0  0  0  0
  9 23  1  0  0  0  0
M  END
> <OPENEYE_ISO_SMILES>
COC(=O)c1ccc(cc1)S(=O)(=O)N

> <OPENEYE_INCHI>
InChI=1S/C8H9NO4S/c1-13-8(10)6-2-4-7(5-3-6)14(9,11)12/h2-5H,1H3,(H2,9,11,12)

> <OPENEYE_INCHIKEY>
XLOVNJUCAFIANM-UHFFFAOYSA-N

> <FORMULA>
C8H9NO4S

$$$$
