@<TRIPOS>MOLECULE
/home/pku/3cl/gett_pdb/5RVU/5RVU_mol2/ligand/5RVU_6P3.pdb
 23 24 0 0 0
SMALL
GASTEIGER

@<TRIPOS>ATOM
      1  C1         9.9670    5.7610   19.5890 C.ar  201  6P3201      0.0003
      2  C2         9.0260    6.6170   19.0640 C.ar  201  6P3201     -0.0526
      3  C3         8.7930    7.8410   19.6690 C.ar  201  6P3201     -0.0611
      4  C4         9.5050    8.2450   20.7860 C.ar  201  6P3201     -0.0617
      5  C5        10.4660    7.4100   21.2940 C.ar  201  6P3201     -0.0611
      6  C6        10.6980    6.1900   20.6990 C.ar  201  6P3201     -0.0526
      7  C12       10.2730    4.4040   18.9420 C.ar  201  6P3201      0.0710
      8  N13       10.2220    4.2480   17.6300 N.ar  201  6P3201     -0.2543
      9  C14       10.5060    3.1090   17.0240 C.ar  201  6P3201      0.0379
     10  C15       10.8460    1.9890   17.7780 C.ar  201  6P3201      0.0253
     11  C16       10.9140    2.1000   19.1490 C.ar  201  6P3201     -0.0486
     12  C17       10.6130    3.3160   19.7170 C.ar  201  6P3201     -0.0351
     13  C21       11.2120    0.6560   17.1180 C.2   201  6P3201      0.1200
     14  O22       11.4840    0.6070   15.8880 O.co2 201  6P3201     -0.8440
     15  O23       11.3470   -0.3900   17.7990 O.co2 201  6P3201     -0.3036
     16  H1         8.5280    6.3630   18.3210 H     201  6P3201      0.0624
     17  H2         8.1420    8.4040   19.3170 H     201  6P3201      0.0618
     18  H3         9.3420    9.0730   21.1770 H     201  6P3201      0.0618
     19  H4        10.9540    7.6630   22.0440 H     201  6P3201      0.0618
     20  H5        11.3460    5.6280   21.0580 H     201  6P3201      0.0624
     21  H6        10.4650    3.0520   16.0970 H     201  6P3201      0.0836
     22  H7        11.1520    1.3720   19.6760 H     201  6P3201      0.0625
     23  H8        10.6550    3.4100   20.6410 H     201  6P3201      0.0639
@<TRIPOS>UNITY_ATOM_ATTR
14 1
charge -1
@<TRIPOS>BOND
     1    14    13   ar
     2    21     9    1
     3     9     8   ar
     4     9    10   ar
     5    13    10    1
     6    13    15   ar
     7     8     7   ar
     8    10    11   ar
     9    16     2    1
    10     7     1    1
    11     7    12   ar
    12     2     1   ar
    13     2     3   ar
    14    11    22    1
    15    11    12   ar
    16    17     3    1
    17     1     6   ar
    18     3     4   ar
    19    12    23    1
    20     6    20    1
    21     6     5   ar
    22     4    18    1
    23     4     5   ar
    24     5    19    1
