U3P
  -OEChem-02242320043D

 34 35  0     1  0  0  0  0  0999 V2000
   -0.1920    0.5010   -2.2380 N   0  0  0  0  0  0  0  0  0  0  0  0
    0.1930   -0.7020   -2.6980 C   0  0  0  0  0  0  0  0  0  0  0  0
    0.0020   -1.0440   -3.9860 N   0  0  0  0  0  0  0  0  0  0  0  0
   -0.5720   -0.1750   -4.8420 C   0  0  0  0  0  0  0  0  0  0  0  0
   -0.9780    1.0970   -4.3710 C   0  0  0  0  0  0  0  0  0  0  0  0
   -0.7790    1.4110   -3.0740 C   0  0  0  0  0  0  0  0  0  0  0  0
    0.7120   -1.4960   -1.9380 O   0  0  0  0  0  0  0  0  0  0  0  0
   -0.7410   -0.4810   -6.0080 O   0  0  0  0  0  0  0  0  0  0  0  0
   -0.7390   -0.1170    3.6540 P   0  0  0  0  0  0  0  0  0  0  0  0
   -1.5080    0.7650    4.7590 O   0  0  0  0  0  0  0  0  0  0  0  0
    0.5580   -0.5700    4.2000 O   0  0  0  0  0  0  0  0  0  0  0  0
   -1.6360   -1.3980    3.2710 O   0  0  0  0  0  0  0  0  0  0  0  0
    3.9060    0.3220    0.8460 O   0  0  0  0  0  0  0  0  0  0  0  0
    2.6960   -0.2940    1.2890 C   0  0  0  0  0  0  0  0  0  0  0  0
    1.5060    0.5980    0.9310 C   0  0  1  0  0  0  0  0  0  0  0  0
    1.4250    0.7550   -0.4950 O   0  0  0  0  0  0  0  0  0  0  0  0
    0.1950   -0.0620    1.3980 C   0  0  1  0  0  0  0  0  0  0  0  0
   -0.4860    0.7720    2.3360 O   0  0  0  0  0  0  0  0  0  0  0  0
   -0.6360   -0.2080    0.0970 C   0  0  1  0  0  0  0  0  0  0  0  0
   -2.0090    0.1080    0.3320 O   0  0  0  0  0  0  0  0  0  0  0  0
    0.0230    0.8420   -0.8300 C   0  0  2  0  0  0  0  0  0  0  0  0
    0.2820   -1.9170   -4.3010 H   0  0  0  0  0  0  0  0  0  0  0  0
   -1.4410    1.8060   -5.0420 H   0  0  0  0  0  0  0  0  0  0  0  0
   -1.0830    2.3770   -2.6970 H   0  0  0  0  0  0  0  0  0  0  0  0
   -1.6400    0.1960    5.5290 H   0  0  0  0  0  0  0  0  0  0  0  0
   -2.4710   -1.0600    2.9200 H   0  0  0  0  0  0  0  0  0  0  0  0
    4.6280   -0.2710    1.0910 H   0  0  0  0  0  0  0  0  0  0  0  0
    2.5820   -1.2630    0.8020 H   0  0  0  0  0  0  0  0  0  0  0  0
    2.7330   -0.4330    2.3700 H   0  0  0  0  0  0  0  0  0  0  0  0
    1.6190    1.5730    1.4050 H   0  0  0  0  0  0  0  0  0  0  0  0
    0.3960   -1.0400    1.8350 H   0  0  0  0  0  0  0  0  0  0  0  0
   -0.5360   -1.2110   -0.3180 H   0  0  0  0  0  0  0  0  0  0  0  0
   -2.4520    0.0900   -0.5260 H   0  0  0  0  0  0  0  0  0  0  0  0
   -0.3600    1.8390   -0.6140 H   0  0  0  0  0  0  0  0  0  0  0  0
  1  2  1  0  0  0  0
  1  6  1  0  0  0  0
  1 21  1  0  0  0  0
  2  3  1  0  0  0  0
  2  7  2  0  0  0  0
  3  4  1  0  0  0  0
  3 22  1  0  0  0  0
  4  5  1  0  0  0  0
  4  8  2  0  0  0  0
  5  6  2  0  0  0  0
  5 23  1  0  0  0  0
  6 24  1  0  0  0  0
  9 10  1  0  0  0  0
  9 11  2  0  0  0  0
  9 12  1  0  0  0  0
  9 18  1  0  0  0  0
 10 25  1  0  0  0  0
 12 26  1  0  0  0  0
 13 14  1  0  0  0  0
 13 27  1  0  0  0  0
 14 15  1  0  0  0  0
 14 28  1  0  0  0  0
 14 29  1  0  0  0  0
 15 16  1  0  0  0  0
 15 17  1  0  0  0  0
 15 30  1  0  0  0  0
 16 21  1  0  0  0  0
 17 18  1  0  0  0  0
 17 19  1  0  0  0  0
 17 31  1  0  0  0  0
 19 20  1  0  0  0  0
 19 21  1  0  0  0  0
 19 32  1  0  0  0  0
 20 33  1  0  0  0  0
 21 34  1  0  0  0  0
M  END
> <OPENEYE_ISO_SMILES>
c1cn(c(=O)[nH]c1=O)[C@H]2[C@@H]([C@@H]([C@H](O2)CO)OP(=O)(O)O)O

> <OPENEYE_INCHI>
InChI=1S/C9H13N2O9P/c12-3-4-7(20-21(16,17)18)6(14)8(19-4)11-2-1-5(13)10-9(11)15/h1-2,4,6-8,12,14H,3H2,(H,10,13,15)(H2,16,17,18)/t4-,6-,7-,8-/m1/s1

> <OPENEYE_INCHIKEY>
FOGRQMPFHUHIGU-XVFCMESISA-N

> <FORMULA>
C9H13N2O9P

$$$$
