@<TRIPOS>MOLECULE
/home/pku/3cl/gett_pdb/5SQ6/5SQ6_mol2/ligand/5SQ6_QL6.pdb
 48 51 0 0 0
SMALL
GASTEIGER

@<TRIPOS>ATOM
      1  C18      -50.1440  -29.0210    3.9240 C.ar  201  QL6201     -0.0479
      2  C17      -48.7560  -29.0460    3.8930 C.ar  201  QL6201      0.0368
      3  C15      -48.0360  -29.1370    2.5490 C.2   201  QL6201      0.2443
      4  C13      -45.9260  -30.0320    1.3990 C.3   201  QL6201      0.0398
      5  C12      -44.8400  -28.9820    1.1330 C.ar  201  QL6201      0.0038
      6  C11      -45.0300  -27.7680    0.4610 C.ar  201  QL6201      0.0050
      7  C10      -46.1520  -27.1560   -0.1080 C.ar  201  QL6201     -0.0523
      8  C20      -50.0690  -29.0220    6.3200 C.ar  201  QL6201      0.0348
      9  C19      -50.8110  -29.0130    5.1450 C.ar  201  QL6201     -0.0397
     10  C02      -42.8140  -30.1950    2.2130 C.2   201  QL6201      0.0881
     11  C04      -43.4970  -29.0600    1.4660 C.ar  201  QL6201      0.0676
     12  C06      -43.7810  -27.1670    0.4360 C.ar  201  QL6201      0.0473
     13  C07      -43.6320  -25.9070   -0.1670 C.ar  201  QL6201     -0.0378
     14  C08      -44.7500  -25.3010   -0.7310 C.ar  201  QL6201     -0.0598
     15  C09      -46.0000  -25.9140   -0.7040 C.ar  201  QL6201     -0.0611
     16  C22      -52.0590  -29.0510    7.9540 C.2   201  QL6201      0.3041
     17  C25      -53.6720  -29.1470    9.9120 C.3   201  QL6201      0.0247
     18  C26      -54.0290  -30.3900   10.7320 C.3   201  QL6201     -0.0328
     19  C27      -53.7310  -29.0680   11.4380 C.3   201  QL6201     -0.0328
     20  C28      -48.6890  -29.0790    6.2800 C.ar  201  QL6201     -0.0397
     21  C29      -48.0340  -29.1020    5.0640 C.ar  201  QL6201     -0.0479
     22  N05      -42.8920  -27.9610    1.0530 N.ar  201  QL6201     -0.3530
     23  N14      -46.7240  -29.7750    2.5970 N.am  201  QL6201     -0.3071
     24  N21      -50.6440  -29.0530    7.6550 N.am  201  QL6201     -0.2695
     25  N24      -52.3180  -29.1450    9.3810 N.am  201  QL6201     -0.2963
     26  O01      -43.4830  -30.9000    3.0200 O.co2 201  QL6201     -0.5431
     27  O03      -41.5850  -30.3760    2.0120 O.co2 201  QL6201     -0.5431
     28  O16      -48.5260  -28.8210    1.5230 O.2   201  QL6201     -0.2702
     29  O23      -52.9050  -28.9640    7.1330 O.2   201  QL6201     -0.2525
     30 H181      -50.7240  -29.0120    2.9970 H     201  QL6201      0.0626
     31 H132      -45.4380  -30.9980    1.5270 H     201  QL6201      0.0512
     32 H131      -46.5750  -30.0800    0.5320 H     201  QL6201      0.0512
     33 H101      -47.1210  -27.6560   -0.0780 H     201  QL6201      0.0624
     34 H191      -51.9060  -28.9800    5.1660 H     201  QL6201      0.0636
     35 H071      -42.6600  -25.4200   -0.1900 H     201  QL6201      0.0638
     36 H081      -44.6620  -24.3380   -1.1990 H     201  QL6201      0.0618
     37 H091      -46.8550  -25.4280   -1.1490 H     201  QL6201      0.0618
     38 H251      -54.4950  -28.7000    9.3590 H     201  QL6201      0.0499
     39 H261      -53.2500  -31.1460   10.8070 H     201  QL6201      0.0284
     40 H262      -55.0770  -30.6830   10.7130 H     201  QL6201      0.0284
     41 H271      -52.7640  -29.0080   11.9320 H     201  QL6201      0.0284
     42 H272      -54.5910  -28.5440   11.8390 H     201  QL6201      0.0284
     43 H281      -48.1270  -29.1190    7.2070 H     201  QL6201      0.0636
     44 H291      -46.9590  -29.1510    5.0120 H     201  QL6201      0.0626
     45 H051      -41.9080  -27.7620    1.1730 H     201  QL6201      0.1659
     46 H141      -46.3650  -30.0470    3.4850 H     201  QL6201      0.1493
     47 H211      -50.0330  -29.1480    8.4370 H     201  QL6201      0.1564
     48 H241      -51.5360  -29.2140   10.0090 H     201  QL6201      0.1505
@<TRIPOS>UNITY_ATOM_ATTR
26 1
charge -1
@<TRIPOS>BOND
     1    36    14    1
     2    37    15    1
     3    14    15   ar
     4    14    13   ar
     5    15     7   ar
     6    35    13    1
     7    13    12   ar
     8     7    33    1
     9     7     6   ar
    10    12     6   ar
    11    12    22   ar
    12     6     5   ar
    13    32     4    1
    14    22    45    1
    15    22    11   ar
    16     5     4    1
    17     5    11   ar
    18     4    31    1
    19     4    23    1
    20    11    10    1
    21    28     3    2
    22    27    10   ar
    23    10    26   ar
    24     3    23   am
    25     3     2    1
    26    23    46    1
    27    30     1    1
    28     2     1   ar
    29     2    21   ar
    30     1     9   ar
    31    44    21    1
    32    21    20   ar
    33     9    34    1
    34     9     8   ar
    35    20     8   ar
    36    20    43    1
    37     8    24    1
    38    29    16    2
    39    24    16   am
    40    24    47    1
    41    16    25   am
    42    38    17    1
    43    25    17    1
    44    25    48    1
    45    17    18    1
    46    17    19    1
    47    40    18    1
    48    18    39    1
    49    18    19    1
    50    19    42    1
    51    19    41    1
