RIW
  -OEChem-02242320043D

 33 36  0     0  0  0  0  0  0999 V2000
    4.9910   -1.0220   -0.4530 C   0  0  0  0  0  0  0  0  0  0  0  0
    3.4770   -1.3470    1.3780 C   0  0  0  0  0  0  0  0  0  0  0  0
    4.9540   -0.9990    1.0930 C   0  0  0  0  0  0  0  0  0  0  0  0
    0.8250    0.5440    0.1210 C   0  0  0  0  0  0  0  0  0  0  0  0
    1.1260    2.8300    0.1390 C   0  0  0  0  0  0  0  0  0  0  0  0
    3.5620   -0.7400   -0.8620 C   0  0  0  0  0  0  0  0  0  0  0  0
   -4.2810   -1.2250   -0.0370 C   0  0  0  0  0  0  0  0  0  0  0  0
   -3.1680   -2.0550   -0.0080 C   0  0  0  0  0  0  0  0  0  0  0  0
   -1.9010   -1.5170    0.0340 C   0  0  0  0  0  0  0  0  0  0  0  0
   -1.7350   -0.1330    0.0430 C   0  0  0  0  0  0  0  0  0  0  0  0
   -2.8580    0.7090    0.0140 C   0  0  0  0  0  0  0  0  0  0  0  0
   -4.1300    0.1480   -0.0260 C   0  0  0  0  0  0  0  0  0  0  0  0
   -1.0460    2.0660    0.0720 C   0  0  0  0  0  0  0  0  0  0  0  0
   -0.5600    0.7500    0.0810 C   0  0  0  0  0  0  0  0  0  0  0  0
   -5.5190   -1.7630   -0.0770 F   0  0  0  0  0  0  0  0  0  0  0  0
   -2.4180    2.0220    0.0320 N   0  0  0  0  0  0  0  0  0  0  0  0
   -0.1680    3.0680    0.1020 N   0  0  0  0  0  0  0  0  0  0  0  0
    1.6240    1.6080    0.1490 N   0  0  0  0  0  0  0  0  0  0  0  0
    1.3490   -0.7360    0.1370 N   0  0  0  0  0  0  0  0  0  0  0  0
    2.7370   -0.9240    0.1830 N   0  0  0  0  0  0  0  0  0  0  0  0
    3.2120   -0.3960   -1.9710 O   0  0  0  0  0  0  0  0  0  0  0  0
    5.6560   -0.2460   -0.8300 H   0  0  0  0  0  0  0  0  0  0  0  0
    5.3050   -2.0010   -0.8140 H   0  0  0  0  0  0  0  0  0  0  0  0
    3.3640   -2.4200    1.5310 H   0  0  0  0  0  0  0  0  0  0  0  0
    3.1220   -0.8030    2.2530 H   0  0  0  0  0  0  0  0  0  0  0  0
    5.6200   -1.7540    1.5100 H   0  0  0  0  0  0  0  0  0  0  0  0
    5.2030   -0.0090    1.4740 H   0  0  0  0  0  0  0  0  0  0  0  0
    1.8070    3.6680    0.1620 H   0  0  0  0  0  0  0  0  0  0  0  0
   -3.2970   -3.1280   -0.0160 H   0  0  0  0  0  0  0  0  0  0  0  0
   -1.0380   -2.1650    0.0570 H   0  0  0  0  0  0  0  0  0  0  0  0
   -5.0010    0.7860   -0.0490 H   0  0  0  0  0  0  0  0  0  0  0  0
   -2.9970    2.8000    0.0180 H   0  0  0  0  0  0  0  0  0  0  0  0
    0.7570   -1.5040    0.1170 H   0  0  0  0  0  0  0  0  0  0  0  0
  2  3  1  0  0  0  0
  1  3  1  0  0  0  0
  2 20  1  0  0  0  0
  1  6  1  0  0  0  0
  6 20  1  0  0  0  0
 19 20  1  0  0  0  0
  6 21  2  0  0  0  0
  4 19  1  0  0  0  0
  8  9  2  0  0  0  0
  9 10  1  0  0  0  0
  7  8  1  0  0  0  0
  4 18  2  0  0  0  0
  4 14  1  0  0  0  0
 10 14  1  0  0  0  0
 10 11  2  0  0  0  0
  7 15  1  0  0  0  0
  7 12  2  0  0  0  0
  5 18  1  0  0  0  0
 13 14  2  0  0  0  0
 11 12  1  0  0  0  0
 11 16  1  0  0  0  0
  5 17  2  0  0  0  0
 13 16  1  0  0  0  0
 13 17  1  0  0  0  0
  1 22  1  0  0  0  0
  1 23  1  0  0  0  0
  2 24  1  0  0  0  0
  2 25  1  0  0  0  0
  3 26  1  0  0  0  0
  3 27  1  0  0  0  0
  5 28  1  0  0  0  0
  8 29  1  0  0  0  0
  9 30  1  0  0  0  0
 12 31  1  0  0  0  0
 16 32  1  0  0  0  0
 19 33  1  0  0  0  0
M  END
> <OPENEYE_ISO_SMILES>
c1cc2c(cc1F)[nH]c3c2c(ncn3)NN4CCCC4=O

> <OPENEYE_INCHI>
InChI=1S/C14H12FN5O/c15-8-3-4-9-10(6-8)18-13-12(9)14(17-7-16-13)19-20-5-1-2-11(20)21/h3-4,6-7H,1-2,5H2,(H2,16,17,18,19)

> <OPENEYE_INCHIKEY>
NFUGNDSRCURWKQ-UHFFFAOYSA-N

> <FORMULA>
C14H12FN5O

$$$$
