T1V
  -OEChem-02242320043D

 31 32  0     0  0  0  0  0  0999 V2000
    0.3600    0.2770   -0.1530 N   0  0  0  0  0  0  0  0  0  0  0  0
    1.0360    0.9040    0.9920 C   0  0  0  0  0  0  0  0  0  0  0  0
    2.4790    1.2320    0.5900 C   0  0  0  0  0  0  0  0  0  0  0  0
   -2.3730    0.1210    0.1310 C   0  0  0  0  0  0  0  0  0  0  0  0
   -2.9140    0.5680    1.2650 C   0  0  0  0  0  0  0  0  0  0  0  0
   -3.9360   -0.2170    1.7720 C   0  0  0  0  0  0  0  0  0  0  0  0
    3.0800    0.0370   -0.0190 N   0  0  0  0  0  0  0  0  0  0  0  0
    4.7730   -1.7650   -0.0940 C   0  0  0  0  0  0  0  0  0  0  0  0
    4.8260    0.1030    1.3470 O   0  0  0  0  0  0  0  0  0  0  0  0
    4.2290   -0.4750    0.4640 C   0  0  0  0  0  0  0  0  0  0  0  0
    2.4040   -0.5910   -1.1640 C   0  0  0  0  0  0  0  0  0  0  0  0
    0.9610   -0.9180   -0.7620 C   0  0  0  0  0  0  0  0  0  0  0  0
   -4.2240   -1.3000    1.0490 C   0  0  0  0  0  0  0  0  0  0  0  0
   -1.0790    2.2710   -0.3630 O   0  0  0  0  0  0  0  0  0  0  0  0
   -1.1560    0.4670   -2.0910 O   0  0  0  0  0  0  0  0  0  0  0  0
   -1.0560    0.9010   -0.7420 S   0  0  0  0  0  0  0  0  0  0  0  0
   -3.1700   -1.3690   -0.3560 S   0  0  0  0  0  0  0  0  0  0  0  0
    0.5150    1.8220    1.2650 H   0  0  0  0  0  0  0  0  0  0  0  0
    1.0380    0.2160    1.8370 H   0  0  0  0  0  0  0  0  0  0  0  0
    2.4810    2.0500   -0.1310 H   0  0  0  0  0  0  0  0  0  0  0  0
    3.0490    1.5180    1.4730 H   0  0  0  0  0  0  0  0  0  0  0  0
   -2.5800    1.4720    1.7520 H   0  0  0  0  0  0  0  0  0  0  0  0
   -4.4590    0.0300    2.6840 H   0  0  0  0  0  0  0  0  0  0  0  0
    4.1580   -2.0850   -0.9360 H   0  0  0  0  0  0  0  0  0  0  0  0
    5.7980   -1.6120   -0.4300 H   0  0  0  0  0  0  0  0  0  0  0  0
    4.7540   -2.5320    0.6800 H   0  0  0  0  0  0  0  0  0  0  0  0
    2.4010    0.0980   -2.0090 H   0  0  0  0  0  0  0  0  0  0  0  0
    2.9270   -1.5070   -1.4400 H   0  0  0  0  0  0  0  0  0  0  0  0
    0.9590   -1.7360   -0.0410 H   0  0  0  0  0  0  0  0  0  0  0  0
    0.3910   -1.2040   -1.6460 H   0  0  0  0  0  0  0  0  0  0  0  0
   -4.9880   -2.0240    1.2910 H   0  0  0  0  0  0  0  0  0  0  0  0
  8 10  1  0  0  0  0
  9 10  2  0  0  0  0
  7 10  1  0  0  0  0
  7 11  1  0  0  0  0
 11 12  1  0  0  0  0
  1 12  1  0  0  0  0
  1  2  1  0  0  0  0
  2  3  1  0  0  0  0
  3  7  1  0  0  0  0
  1 16  1  0  0  0  0
 14 16  2  0  0  0  0
 15 16  2  0  0  0  0
  4 16  1  0  0  0  0
  4  5  2  0  0  0  0
  5  6  1  0  0  0  0
  6 13  2  0  0  0  0
 13 17  1  0  0  0  0
  4 17  1  0  0  0  0
  2 18  1  0  0  0  0
  2 19  1  0  0  0  0
  3 20  1  0  0  0  0
  3 21  1  0  0  0  0
  5 22  1  0  0  0  0
  6 23  1  0  0  0  0
  8 24  1  0  0  0  0
  8 25  1  0  0  0  0
  8 26  1  0  0  0  0
 11 27  1  0  0  0  0
 11 28  1  0  0  0  0
 12 29  1  0  0  0  0
 12 30  1  0  0  0  0
 13 31  1  0  0  0  0
M  END
> <OPENEYE_ISO_SMILES>
CC(=O)N1CCN(CC1)S(=O)(=O)c2cccs2

> <OPENEYE_INCHI>
InChI=1S/C10H14N2O3S2/c1-9(13)11-4-6-12(7-5-11)17(14,15)10-3-2-8-16-10/h2-3,8H,4-7H2,1H3

> <OPENEYE_INCHIKEY>
YYXLVWKAHWXWTR-UHFFFAOYSA-N

> <FORMULA>
C10H14N2O3S2

$$$$
