@<TRIPOS>MOLECULE
/home/pku/3cl/gett_pdb/5RSD/5RSD_mol2/ligand/5RSD_1LQ.pdb
 18 19 0 0 0
SMALL
GASTEIGER

@<TRIPOS>ATOM
      1  CAE      -49.8840  -29.1420    3.1780 C.ar  201  1LQ201     -0.0356
      2  CAB      -48.5870  -29.0510    2.7570 C.ar  201  1LQ201     -0.0597
      3  CAC      -47.5890  -29.0150    3.7310 C.ar  201  1LQ201     -0.0610
      4  CAF      -47.9000  -29.0730    5.0450 C.ar  201  1LQ201     -0.0493
      5  C5       -49.2690  -29.1680    5.4810 C.ar  201  1LQ201      0.0399
      6  C4       -50.2530  -29.2350    4.5650 C.ar  201  1LQ201      0.0760
      7  N3       -51.5160  -29.4250    4.9730 N.ar  201  1LQ201     -0.2353
      8  C2       -51.7990  -29.4930    6.2500 C.ar  201  1LQ201      0.1187
      9  N1       -50.9080  -29.4300    7.2200 N.ar  201  1LQ201     -0.2205
     10  C6       -49.6620  -29.2650    6.8300 C.ar  201  1LQ201      0.1271
     11  NAA      -48.5460  -29.2210    7.7150 N.pl3 201  1LQ201     -0.3426
     12  H1       -50.5530  -29.2150    2.5360 H     201  1LQ201      0.0639
     13  H2       -48.3790  -28.9860    1.8530 H     201  1LQ201      0.0618
     14  H3       -46.7040  -28.8900    3.4750 H     201  1LQ201      0.0618
     15  H4       -47.2200  -29.0190    5.6780 H     201  1LQ201      0.0625
     16  H5       -52.6950  -29.5620    6.4910 H     201  1LQ201      0.1048
     17  H6       -48.4770  -28.5840    8.2880 H     201  1LQ201      0.1437
     18  H7       -47.9420  -29.8320    7.6760 H     201  1LQ201      0.1437
@<TRIPOS>BOND
     1    13     2    1
     2    12     1    1
     3     2     1   ar
     4     2     3   ar
     5     1     6   ar
     6    14     3    1
     7     3     4   ar
     8     6     7   ar
     9     6     5   ar
    10     7     8   ar
    11     4     5   ar
    12     4    15    1
    13     5    10   ar
    14     8    16    1
    15     8     9   ar
    16    10     9   ar
    17    10    11    1
    18    18    11    1
    19    11    17    1
