@<TRIPOS>MOLECULE
/home/pku/3cl/gett_pdb/7JPE/7JPE_mol2/ligand/7JPE_GTA.pdb
 51 56 0 0 0
SMALL
GASTEIGER

@<TRIPOS>ATOM
      1  N2        70.7800  -59.6230  -18.5080 N.pl3 301  GTA301     -0.0859
      2  O6        70.5930  -57.0990  -14.7050 O.2   301  GTA301     -0.2636
      3  C6        69.9840  -57.8360  -15.4710 C.ar  301  GTA301      0.2978
      4  C5        68.6610  -58.2600  -15.3920 C.ar  301  GTA301      0.1399
      5  N7        67.6450  -57.9990  -14.4710 N.pl3 301  GTA301     -0.2828
      6  C7        67.7440  -57.1620  -13.2790 C.3   301  GTA301      0.1140
      7  C8        66.5520  -58.6490  -14.8650 C.3   301  GTA301      0.1917
      8  N9        66.7920  -59.3220  -15.9690 N.pl3 301  GTA301     -0.2503
      9  C4        68.1230  -59.1000  -16.3350 C.ar  301  GTA301      0.1558
     10  N3        68.7560  -59.6030  -17.4080 N.ar  301  GTA301     -0.1946
     11  C2        70.0140  -59.2070  -17.4960 C.ar  301  GTA301      0.2604
     12  N1        70.6000  -58.3710  -16.5810 N.ar  301  GTA301     -0.1712
     13  O3A       64.5670  -63.2440  -15.2120 O.3   301  GTA301     -0.2175
     14  C1A       65.8150  -60.1580  -16.7050 C.3   301  GTA301      0.2283
     15  C2A       65.9970  -61.6440  -16.4190 C.3   301  GTA301      0.2310
     16  C3A       64.9800  -61.8900  -15.3240 C.3   301  GTA301      0.2158
     17  C4A       63.8250  -60.9840  -15.7690 C.3   301  GTA301      0.1799
     18  C5A       62.8740  -60.5370  -14.6830 C.3   301  GTA301      0.1813
     19  O4A       64.4860  -59.8240  -16.3420 O.3   301  GTA301     -0.3326
     20  O2A       65.6620  -62.3530  -17.5880 O.3   301  GTA301     -0.2158
     21  P1        63.1960  -59.8270  -12.1430 P.3   301  GTA301      0.2189
     22  O11       62.2180  -58.7450  -11.8250 O.2   301  GTA301     -0.5170
     23  O12       62.8510  -61.2370  -11.8040 O.3   301  GTA301     -0.4371
     24  O13       64.5910  -59.4470  -11.4450 O.3   301  GTA301     -0.2701
     25  O15       63.5920  -59.7430  -13.6960 O.3   301  GTA301     -0.3112
     26  P2        65.9470  -60.2550  -11.1720 P.3   301  GTA301      0.2237
     27  O22       66.9650  -59.3180  -10.6110 O.3   301  GTA301     -0.4369
     28  O21       66.2870  -61.0870  -12.3610 O.2   301  GTA301     -0.5168
     29  O23       65.4910  -61.2610  -10.0170 O.3   301  GTA301     -0.2701
     30  P3        66.2160  -62.5440   -9.3880 P.3   301  GTA301      0.2189
     31  O32       67.5290  -62.1150   -8.8210 O.3   301  GTA301     -0.4371
     32  O31       66.2070  -63.6570  -10.3790 O.2   301  GTA301     -0.5170
     33  O33       65.2020  -62.9020   -8.2060 O.3   301  GTA301     -0.3112
     34  C5B       64.9930  -61.9720   -7.1200 C.3   301  GTA301      0.1813
     35  C4B       64.4180  -62.7280   -5.9510 C.3   301  GTA301      0.1801
     36  O4B       63.0400  -63.0820   -6.2370 O.3   301  GTA301     -0.3306
     37  C3B       65.1010  -64.0600   -5.6350 C.3   301  GTA301      0.2161
     38  O3B       66.2440  -63.8350   -4.8220 O.3   301  GTA301     -0.2175
     39  C2B       63.9730  -64.8270   -4.9430 C.3   301  GTA301      0.2337
     40  O2B       63.8350  -64.4860   -3.5810 O.3   301  GTA301     -0.2155
     41  C1B       62.7570  -64.3780   -5.7530 C.3   301  GTA301      0.2409
     42  N9C       62.4530  -65.2520   -6.8950 N.ar  301  GTA301     -0.2693
     43  C8C       63.0410  -65.2490   -8.1380 C.ar  301  GTA301      0.1816
     44  N7C       62.5490  -66.1720   -8.9330 N.ar  301  GTA301     -0.2193
     45  C5C       61.5810  -66.8170   -8.1700 C.ar  301  GTA301      0.1518
     46  C6C       60.7010  -67.8850   -8.4460 C.ar  301  GTA301      0.1919
     47  N6C       60.6520  -68.5210   -9.6110 N.pl3 301  GTA301     -0.1054
     48  N1C       59.8630  -68.2760   -7.4560 N.ar  301  GTA301     -0.2040
     49  C2C       59.9170  -67.6320   -6.2820 C.ar  301  GTA301      0.2016
     50  N3C       60.7010  -66.6210   -5.9110 N.ar  301  GTA301     -0.2048
     51  C4C       61.5190  -66.2560   -6.9130 C.ar  301  GTA301      0.1692
@<TRIPOS>BOND
     1     1    11    1
     2    20    15    1
     3    11    10   ar
     4    11    12   ar
     5    10     9   ar
     6    14    15    1
     7    14    19    1
     8    14     8    1
     9    12     3   ar
    10    15    16    1
    11    19    17    1
    12     9     8    1
    13     9     4   ar
    14     8     7    1
    15    17    16    1
    16    17    18    1
    17     3     4   ar
    18     3     2    2
    19     4     5    1
    20    16    13    1
    21     7     5    1
    22    18    25    1
    23     5     6    1
    24    25    21    1
    25    28    26    2
    26    21    22    2
    27    21    23    1
    28    21    24    1
    29    24    26    1
    30    26    27    1
    31    26    29    1
    32    32    30    2
    33    29    30    1
    34    47    46    1
    35    30    31    1
    36    30    33    1
    37    44    45   ar
    38    44    43   ar
    39    46    45   ar
    40    46    48   ar
    41    33    34    1
    42    45    51   ar
    43    43    42   ar
    44    48    49   ar
    45    34    35    1
    46    51    42   ar
    47    51    50   ar
    48    42    41    1
    49    49    50   ar
    50    36    35    1
    51    36    41    1
    52    35    37    1
    53    41    39    1
    54    37    39    1
    55    37    38    1
    56    39    40    1
