@<TRIPOS>MOLECULE
/home/pku/3cl/gett_pdb/5RSR/5RSR_mol2/ligand/5RSR_XIY.pdb
 19 20 0 0 0
SMALL
GASTEIGER

@<TRIPOS>ATOM
      1  NG       -51.4700  -29.4160    5.0290 N.ar  201  XIY201     -0.2301
      2  CD1      -51.6910  -29.6270    6.2450 C.ar  201  XIY201      0.1338
      3  NE1      -50.5360  -29.5300    6.9330 N.ar  201  XIY201     -0.3400
      4  CE2      -49.6100  -29.2650    6.1040 C.ar  201  XIY201      0.0663
      5  CZ2      -48.1720  -29.0200    6.2020 C.ar  201  XIY201     -0.0363
      6  CH2      -47.4570  -28.7050    5.1550 C.ar  201  XIY201     -0.0597
      7  CZ3      -48.1030  -28.6270    3.8710 C.ar  201  XIY201     -0.0596
      8  CE3      -49.4400  -28.8510    3.7600 C.ar  201  XIY201     -0.0342
      9  CD2      -50.1970  -29.1520    4.8910 C.ar  201  XIY201      0.0892
     10  C        -53.1070  -29.9930    6.7200 C.3   201  XIY201      0.1018
     11  O        -53.2720  -29.1600    7.8210 O.3   201  XIY201     -0.3874
     12  HE1      -50.4360  -29.6710    7.7750 H     201  XIY201      0.1671
     13  HC1      -53.1480  -30.9210    6.9950 H     201  XIY201      0.0638
     14  HC2      -53.7640  -29.8000    6.0330 H     201  XIY201      0.0638
     15  HZ2      -47.7590  -29.0730    7.0330 H     201  XIY201      0.0639
     16  HH2      -46.5410  -28.5620    5.2340 H     201  XIY201      0.0618
     17  HZ3      -47.6070  -28.4070    3.1160 H     201  XIY201      0.0618
     18  HE3      -49.8640  -28.7660    2.9510 H     201  XIY201      0.0639
     19  H        -53.6520  -29.5900    8.4480 H     201  XIY201      0.2100
@<TRIPOS>BOND
     1    18     8    1
     2    17     7    1
     3     8     7   ar
     4     8     9   ar
     5     7     6   ar
     6     9     1   ar
     7     9     4   ar
     8     1     2   ar
     9     6    16    1
    10     6     5   ar
    11    14    10    1
    12     4     5   ar
    13     4     3   ar
    14     5    15    1
    15     2    10    1
    16     2     3   ar
    17    10    13    1
    18    10    11    1
    19     3    12    1
    20    11    19    1
