@<TRIPOS>MOLECULE
/home/pku/3cl/gett_pdb/8E5Z/8E5Z_mol2/ligand/8E5Z_WJB.pdb
 30 30 0 0 0
SMALL
GASTEIGER

@<TRIPOS>ATOM
      1  C02       10.8240   27.9560   24.5330 C.3   401  WJB401      0.1509
      2  C05       11.2240   24.2090   25.4290 C.2   401  WJB401      0.4216
      3  C07       12.1080   22.1920   26.6380 C.3   401  WJB401      0.1761
      4  C08       13.2170   21.8830   27.6840 C.3   401  WJB401      0.0312
      5  C09       14.6070   22.4200   27.3020 C.3   401  WJB401      0.0022
      6  C10       15.6760   22.1530   28.3730 C.3   401  WJB401      0.0001
      7  C12       10.7130   21.6940   27.1470 C.2   401  WJB401      0.2614
      8  C14        8.9370   19.9020   27.2870 C.3   401  WJB401      0.1287
      9  C15        7.9220   19.7610   26.1130 C.3   401  WJB401      0.0335
     10  C16        7.5220   21.1110   25.4910 C.3   401  WJB401      0.0818
     11  C17        6.6490   20.9850   24.2500 C.2   401  WJB401      0.2410
     12  C19        5.6190   22.6760   25.6010 C.3   401  WJB401      0.1156
     13  C20        6.7210   22.0220   26.4570 C.3   401  WJB401      0.0326
     14  C22        9.1500   18.5010   27.8900 C.3   401  WJB401      0.2036
     15  C26       11.9520   28.9830   24.5690 C.3   401  WJB401      0.0274
     16  C28        9.0850   29.8710   23.1900 C.3   401  WJB401      0.1761
     17  C01        9.9160   28.1420   25.7340 C.3   401  WJB401      0.0274
     18  C03       11.4730   26.5090   24.5640 C.3   401  WJB401      0.2317
     19  C11       15.0930   21.8290   25.9770 C.3   401  WJB401      0.0001
     20  N06       12.1040   23.6470   26.3520 N.am  401  WJB401     -0.1611
     21  N13       10.2420   20.4050   26.8560 N.am  401  WJB401     -0.2030
     22  N18        5.5980   21.8890   24.3510 N.am  401  WJB401     -0.2054
     23  O04       10.9590   25.5650   25.5230 O.3   401  WJB401     -0.4317
     24  O21        6.8090   20.2620   23.2950 O.2   401  WJB401     -0.2734
     25  O23        9.8660   18.7150   29.0600 O.3   401  WJB401     -0.2185
     26  O24       10.0090   22.4630   27.8090 O.2   401  WJB401     -0.2715
     27  O25       10.6760   23.5290   24.5620 O.2   401  WJB401     -0.2246
     28  O34        9.0330   27.3190   22.8090 O.2   401  WJB401     -0.1729
     29  O35       11.0200   28.5480   22.1060 O.2   401  WJB401     -0.1729
     30  S27        9.9590   28.3730   23.0330 S.O2  401  WJB401     -0.0080
@<TRIPOS>BOND
     1    29    30    2
     2    28    30    2
     3    30    16    1
     4    30     1    1
     5    24    11    2
     6    11    22   am
     7    11    10    1
     8    22    12    1
     9     1    18    1
    10     1    15    1
    11     1    17    1
    12    27     2    2
    13    18    23    1
    14     2    23    1
    15     2    20   am
    16    10     9    1
    17    10    13    1
    18    12    13    1
    19    19     5    1
    20     9     8    1
    21    20     3    1
    22     3     7    1
    23     3     4    1
    24    21     7   am
    25    21     8    1
    26     7    26    2
    27     8    14    1
    28     5     4    1
    29     5     6    1
    30    14    25    1
