@<TRIPOS>MOLECULE
/home/pku/3cl/gett_pdb/8A4T/8A4T_mol2/ligand/8A4T_O6K.pdb
 43 46 0 0 0
SMALL
GASTEIGER

@<TRIPOS>ATOM
      1  O26      -22.4670   24.4600   -0.8000 O.2   401  O6K401     -0.2242
      2  C24      -21.3500   24.8160   -0.4600 C.2   401  O6K401      0.4253
      3  O25      -20.5570   23.9450    0.4250 O.3   401  O6K401     -0.4406
      4  C27      -21.0710   23.3980    1.6730 C.3   401  O6K401      0.1379
      5  C31      -20.0260   23.4940    2.7770 C.3   401  O6K401      0.0437
      6  C32      -21.3670   21.9200    1.3960 C.3   401  O6K401      0.0437
      7  C33      -22.3080   24.1540    2.1850 C.3   401  O6K401      0.0437
      8  N23      -20.8350   25.9910   -0.8110 N.am  401  O6K401     -0.1376
      9  C19      -21.5330   27.0140   -1.3970 C.ar  401  O6K401      0.1327
     10  C21      -20.8340   28.3160   -1.5230 C.ar  401  O6K401      0.2767
     11  O22      -19.6510   28.3480   -1.0800 O.2   401  O6K401     -0.2655
     12  C18      -22.8430   26.9780   -1.8900 C.ar  401  O6K401      0.0231
     13  C17      -23.4110   28.1210   -2.4450 C.ar  401  O6K401      0.0202
     14  C16      -22.7380   29.3520   -2.5280 C.ar  401  O6K401      0.0788
     15  N15      -21.4790   29.4600   -2.1110 N.ar  401  O6K401     -0.2864
     16  C20      -20.7200   30.7330   -2.1970 C.3   401  O6K401      0.1662
     17  C22      -21.0340   31.7210   -3.3460 C.3   401  O6K401      0.0321
     18  C29      -20.9620   31.1250   -4.7780 C.3   401  O6K401      0.0024
     19  C34      -19.5790   30.9920   -5.4190 C.3   401  O6K401      0.0001
     20  C30      -20.5220   32.0160   -5.9410 C.3   401  O6K401      0.0001
     21  C36      -20.8910   31.4010   -0.8510 C.2   401  O6K401      0.2621
     22  O37      -21.9070   31.3210   -0.2090 O.2   401  O6K401     -0.2713
     23  N38      -19.8760   32.0720   -0.3740 N.am  401  O6K401     -0.2025
     24  C40      -19.9920   32.8030    0.8480 C.3   401  O6K401      0.1352
     25  C42      -18.9330   32.3830    1.8920 C.3   401  O6K401      0.0343
     26  C45      -19.1110   30.9390    2.3170 C.3   401  O6K401      0.0861
     27  C47      -17.9380   30.5480    3.1480 C.2   401  O6K401      0.2453
     28  O48      -16.7780   30.5940    2.7040 O.2   401  O6K401     -0.2730
     29  N49      -18.3950   30.1320    4.3630 N.am  401  O6K401     -0.1826
     30  C51      -19.8390   30.1680    4.5370 C.2   401  O6K401      0.0627
     31  C54      -20.3340   30.6450    3.1800 C.3   401  O6K401      0.0534
     32  C57      -19.8810   34.2530    0.3730 C.3   401  O6K401      0.2487
     33  O40      -20.6120   34.4250   -0.8630 O.3   401  O6K401     -0.2113
     34  C35      -20.4570   35.1880    1.3750 C.2   401  O6K401      0.2739
     35  O41      -19.9510   35.4130    2.4660 O.2   401  O6K401     -0.2705
     36  N36      -21.6010   35.6850    0.9360 N.am  401  O6K401     -0.1984
     37  C13      -22.4040   36.5390    1.7640 C.3   401  O6K401      0.1415
     38  C14      -23.5020   35.8210    2.5110 C.ar  401  O6K401     -0.0006
     39  C28      -24.3880   36.6000    3.2300 C.ar  401  O6K401     -0.0026
     40  C26      -25.4500   36.0450    3.8970 C.ar  401  O6K401     -0.0003
     41  C25      -25.6090   34.6860    3.8320 C.ar  401  O6K401     -0.0000
     42  C23      -24.7120   33.9030    3.1160 C.ar  401  O6K401     -0.0003
     43  C15      -23.6480   34.4560    2.4590 C.ar  401  O6K401     -0.0026
@<TRIPOS>BOND
     1    20    19    1
     2    20    18    1
     3    19    18    1
     4    18    17    1
     5    17    16    1
     6    14    13   ar
     7    14    15   ar
     8    13    12   ar
     9    16    15    1
    10    16    21    1
    11    15    10   ar
    12    12     9   ar
    13    10     9   ar
    14    10    11    2
    15     9     8    1
    16    33    32    1
    17    21    23   am
    18    21    22    2
    19     8     2   am
    20     1     2    2
    21     2     3    1
    22    23    24    1
    23    32    24    1
    24    32    34    1
    25     3     4    1
    26    24    25    1
    27    36    34   am
    28    36    37    1
    29    34    35    2
    30     6     4    1
    31     4     7    1
    32     4     5    1
    33    37    38    1
    34    25    26    1
    35    26    27    1
    36    26    31    1
    37    43    38   ar
    38    43    42   ar
    39    38    39   ar
    40    28    27    2
    41    42    41   ar
    42    27    29    1
    43    31    30    1
    44    39    40   ar
    45    41    40   ar
    46    29    30    2
