SQ5
  -OEChem-02242320043D

 39 41  0     1  0  0  0  0  0999 V2000
    3.3990   -0.1020   -0.3140 C   0  0  0  0  0  0  0  0  0  0  0  0
   -4.7850   -0.4840   -0.1770 C   0  0  0  0  0  0  0  0  0  0  0  0
    4.0440    0.4350    0.9650 C   0  0  0  0  0  0  0  0  0  0  0  0
    5.3830   -0.2690    1.1960 C   0  0  0  0  0  0  0  0  0  0  0  0
   -2.5280    0.2590    0.0480 C   0  0  0  0  0  0  0  0  0  0  0  0
    6.3090   -0.0050    0.0070 C   0  0  0  0  0  0  0  0  0  0  0  0
    5.6630   -0.5430   -1.2720 C   0  0  0  0  0  0  0  0  0  0  0  0
    4.3250    0.1610   -1.5030 C   0  0  0  0  0  0  0  0  0  0  0  0
   -0.2290    0.9600    0.4060 C   0  0  0  0  0  0  0  0  0  0  0  0
   -2.9850    1.5610   -0.1090 C   0  0  0  0  0  0  0  0  0  0  0  0
   -5.1630    0.8410   -0.3200 C   0  0  0  0  0  0  0  0  0  0  0  0
    0.7040   -1.1950    0.4710 N   0  0  0  0  0  0  0  0  0  0  0  0
   -1.1630    0.0030    0.2380 N   0  0  0  0  0  0  0  0  0  0  0  0
    2.0600    0.6020   -0.5440 C   0  0  0  0  0  0  0  0  0  0  0  0
   -4.2680    1.8080   -0.2830 N   0  0  0  0  0  0  0  0  0  0  0  0
   -0.6260   -1.2220    0.2750 C   0  0  0  0  0  0  0  0  0  0  0  0
   -3.4450   -0.7880    0.0130 C   0  0  0  0  0  0  0  0  0  0  0  0
    1.0860    0.2240    0.5730 C   0  0  1  0  0  0  0  0  0  0  0  0
   -5.7100   -1.4670   -0.2170 F   0  0  0  0  0  0  0  0  0  0  0  0
   -1.2690   -2.2460    0.1470 O   0  0  0  0  0  0  0  0  0  0  0  0
   -0.4040    2.1590    0.4160 O   0  0  0  0  0  0  0  0  0  0  0  0
    3.2320   -1.1750   -0.2130 H   0  0  0  0  0  0  0  0  0  0  0  0
    4.2110    1.5080    0.8650 H   0  0  0  0  0  0  0  0  0  0  0  0
    3.3840    0.2480    1.8120 H   0  0  0  0  0  0  0  0  0  0  0  0
    5.8430    0.1140    2.1060 H   0  0  0  0  0  0  0  0  0  0  0  0
    5.2160   -1.3410    1.2960 H   0  0  0  0  0  0  0  0  0  0  0  0
    6.4760    1.0670   -0.0940 H   0  0  0  0  0  0  0  0  0  0  0  0
    7.2630   -0.5070    0.1710 H   0  0  0  0  0  0  0  0  0  0  0  0
    6.3230   -0.3550   -2.1190 H   0  0  0  0  0  0  0  0  0  0  0  0
    5.4970   -1.6160   -1.1720 H   0  0  0  0  0  0  0  0  0  0  0  0
    3.8650   -0.2220   -2.4140 H   0  0  0  0  0  0  0  0  0  0  0  0
    4.4910    1.2340   -1.6030 H   0  0  0  0  0  0  0  0  0  0  0  0
   -2.2820    2.3800   -0.0840 H   0  0  0  0  0  0  0  0  0  0  0  0
   -6.2050    1.0850   -0.4650 H   0  0  0  0  0  0  0  0  0  0  0  0
    1.2970   -1.9600    0.5320 H   0  0  0  0  0  0  0  0  0  0  0  0
    2.2130    1.6810   -0.5440 H   0  0  0  0  0  0  0  0  0  0  0  0
    1.6480    0.2940   -1.5050 H   0  0  0  0  0  0  0  0  0  0  0  0
   -3.1210   -1.8110    0.1330 H   0  0  0  0  0  0  0  0  0  0  0  0
    1.5220    0.4370    1.5490 H   0  0  0  0  0  0  0  0  0  0  0  0
  4  6  1  0  0  0  0
  6  7  1  0  0  0  0
  3  4  1  0  0  0  0
  7  8  1  0  0  0  0
  1  3  1  0  0  0  0
  1  8  1  0  0  0  0
  1 14  1  0  0  0  0
 14 18  1  0  0  0  0
  9 21  2  0  0  0  0
  9 18  1  0  0  0  0
 12 18  1  0  0  0  0
  9 13  1  0  0  0  0
 12 16  1  0  0  0  0
 13 16  1  0  0  0  0
  5 13  1  0  0  0  0
 16 20  2  0  0  0  0
  5 10  2  0  0  0  0
 10 15  1  0  0  0  0
  5 17  1  0  0  0  0
 11 15  2  0  0  0  0
  2 17  2  0  0  0  0
  2 11  1  0  0  0  0
  2 19  1  0  0  0  0
  1 22  1  0  0  0  0
  3 23  1  0  0  0  0
  3 24  1  0  0  0  0
  4 25  1  0  0  0  0
  4 26  1  0  0  0  0
  6 27  1  0  0  0  0
  6 28  1  0  0  0  0
  7 29  1  0  0  0  0
  7 30  1  0  0  0  0
  8 31  1  0  0  0  0
  8 32  1  0  0  0  0
 10 33  1  0  0  0  0
 11 34  1  0  0  0  0
 12 35  1  0  0  0  0
 14 36  1  0  0  0  0
 14 37  1  0  0  0  0
 17 38  1  0  0  0  0
 18 39  1  0  0  0  0
M  END
> <OPENEYE_ISO_SMILES>
c1c(cncc1F)N2C(=O)[C@@H](NC2=O)CC3CCCCC3

> <OPENEYE_INCHI>
InChI=1S/C15H18FN3O2/c16-11-7-12(9-17-8-11)19-14(20)13(18-15(19)21)6-10-4-2-1-3-5-10/h7-10,13H,1-6H2,(H,18,21)/t13-/m0/s1

> <OPENEYE_INCHIKEY>
MTRGOOHUDUKDJK-ZDUSSCGKSA-N

> <FORMULA>
C15H18FN3O2

$$$$
