XIY
  -OEChem-02242320043D

 19 20  0     0  0  0  0  0  0999 V2000
   -0.5480    1.3050   -0.0010 N   0  0  0  0  0  0  0  0  0  0  0  0
   -1.4400    0.3580   -0.0000 C   0  0  0  0  0  0  0  0  0  0  0  0
   -0.8310   -0.8580   -0.0000 N   0  0  0  0  0  0  0  0  0  0  0  0
    0.5320   -0.6350   -0.0010 C   0  0  0  0  0  0  0  0  0  0  0  0
    1.6470   -1.4610   -0.0000 C   0  0  0  0  0  0  0  0  0  0  0  0
    2.9090   -0.9050    0.0000 C   0  0  0  0  0  0  0  0  0  0  0  0
    3.0700    0.4730    0.0010 C   0  0  0  0  0  0  0  0  0  0  0  0
    1.9840    1.3020    0.0010 C   0  0  0  0  0  0  0  0  0  0  0  0
    0.6960    0.7610   -0.0010 C   0  0  0  0  0  0  0  0  0  0  0  0
   -2.9310    0.5760    0.0000 C   0  0  0  0  0  0  0  0  0  0  0  0
   -3.5980   -0.6880    0.0010 O   0  0  0  0  0  0  0  0  0  0  0  0
   -1.2710   -1.7220   -0.0000 H   0  0  0  0  0  0  0  0  0  0  0  0
   -3.2160    1.1370    0.8900 H   0  0  0  0  0  0  0  0  0  0  0  0
   -3.2170    1.1370   -0.8900 H   0  0  0  0  0  0  0  0  0  0  0  0
    1.5270   -2.5340    0.0000 H   0  0  0  0  0  0  0  0  0  0  0  0
    3.7780   -1.5460    0.0000 H   0  0  0  0  0  0  0  0  0  0  0  0
    4.0640    0.8950    0.0010 H   0  0  0  0  0  0  0  0  0  0  0  0
    2.1210    2.3730    0.0020 H   0  0  0  0  0  0  0  0  0  0  0  0
   -4.5620   -0.6240    0.0010 H   0  0  0  0  0  0  0  0  0  0  0  0
  1  2  2  0  0  0  0
  1  9  1  0  0  0  0
  2  3  1  0  0  0  0
  2 10  1  0  0  0  0
  3  4  1  0  0  0  0
  4  5  2  0  0  0  0
  4  9  1  0  0  0  0
  5  6  1  0  0  0  0
  6  7  2  0  0  0  0
  7  8  1  0  0  0  0
  8  9  2  0  0  0  0
 10 11  1  0  0  0  0
  3 12  1  0  0  0  0
 10 13  1  0  0  0  0
 10 14  1  0  0  0  0
  5 15  1  0  0  0  0
  6 16  1  0  0  0  0
  7 17  1  0  0  0  0
  8 18  1  0  0  0  0
 11 19  1  0  0  0  0
M  END
> <OPENEYE_ISO_SMILES>
c1ccc2c(c1)[nH]c(n2)CO

> <OPENEYE_INCHI>
InChI=1S/C8H8N2O/c11-5-8-9-6-3-1-2-4-7(6)10-8/h1-4,11H,5H2,(H,9,10)

> <OPENEYE_INCHIKEY>
IAJLTMBBAVVMQO-UHFFFAOYSA-N

> <FORMULA>
C8H8N2O

$$$$
