HF0
  -OEChem-02242320023D

 38 40  0     1  0  0  0  0  0999 V2000
   -2.5380    1.6100   -0.3480 C   0  0  0  0  0  0  0  0  0  0  0  0
   -1.6900    0.5390   -0.1320 C   0  0  0  0  0  0  0  0  0  0  0  0
   -2.2380   -0.7290    0.1420 C   0  0  0  0  0  0  0  0  0  0  0  0
    0.4830   -0.4140   -0.4390 C   0  0  2  0  0  0  0  0  0  0  0  0
    0.1350   -1.5360    0.5500 C   0  0  1  0  0  0  0  0  0  0  0  0
    1.9290   -0.0230   -0.2680 C   0  0  0  0  0  0  0  0  0  0  0  0
    4.5880    0.6950    0.0460 C   0  0  0  0  0  0  0  0  0  0  0  0
    2.8820   -0.5070   -1.1450 C   0  0  0  0  0  0  0  0  0  0  0  0
   -3.6300   -0.8990    0.2060 C   0  0  0  0  0  0  0  0  0  0  0  0
    2.2970    0.8220    0.7610 C   0  0  0  0  0  0  0  0  0  0  0  0
    3.6260    1.1830    0.9220 C   0  0  0  0  0  0  0  0  0  0  0  0
    4.2130   -0.1500   -0.9920 C   0  0  0  0  0  0  0  0  0  0  0  0
   -6.1420    2.2480   -0.4300 C   0  0  0  0  0  0  0  0  0  0  0  0
   -4.4590    0.1870   -0.0120 C   0  0  0  0  0  0  0  0  0  0  0  0
   -3.9150    1.4360   -0.2830 C   0  0  0  0  0  0  0  0  0  0  0  0
   -1.3340   -1.8640    0.3570 C   0  0  0  0  0  0  0  0  0  0  0  0
   -0.3490    0.7170   -0.1830 O   0  0  0  0  0  0  0  0  0  0  0  0
   -1.7410   -3.0080    0.3790 O   0  0  0  0  0  0  0  0  0  0  0  0
   -4.1570   -2.1180    0.4790 O   0  0  0  0  0  0  0  0  0  0  0  0
   -4.7360    2.4940   -0.4980 O   0  0  0  0  0  0  0  0  0  0  0  0
    0.9320   -2.6910    0.2760 O   0  0  0  0  0  0  0  0  0  0  0  0
    5.1490   -0.6260   -1.8550 O   0  0  0  0  0  0  0  0  0  0  0  0
    5.8940    1.0470    0.2000 O   0  0  0  0  0  0  0  0  0  0  0  0
    3.9880    2.0150    1.9360 O   0  0  0  0  0  0  0  0  0  0  0  0
   -2.1280    2.5860   -0.5630 H   0  0  0  0  0  0  0  0  0  0  0  0
    0.3190   -0.7630   -1.4590 H   0  0  0  0  0  0  0  0  0  0  0  0
    0.3110   -1.1990    1.5710 H   0  0  0  0  0  0  0  0  0  0  0  0
    2.5890   -1.1640   -1.9510 H   0  0  0  0  0  0  0  0  0  0  0  0
    1.5490    1.2010    1.4420 H   0  0  0  0  0  0  0  0  0  0  0  0
   -6.4190    1.5060   -1.1790 H   0  0  0  0  0  0  0  0  0  0  0  0
   -6.3980    1.8760    0.5620 H   0  0  0  0  0  0  0  0  0  0  0  0
   -6.6830    3.1750   -0.6200 H   0  0  0  0  0  0  0  0  0  0  0  0
   -5.5310    0.0650    0.0380 H   0  0  0  0  0  0  0  0  0  0  0  0
   -4.2930   -2.2860    1.4210 H   0  0  0  0  0  0  0  0  0  0  0  0
    0.7600   -3.4360    0.8670 H   0  0  0  0  0  0  0  0  0  0  0  0
    5.2930   -0.0640   -2.6280 H   0  0  0  0  0  0  0  0  0  0  0  0
    6.3970    0.4520    0.7720 H   0  0  0  0  0  0  0  0  0  0  0  0
    4.2190    1.5570    2.7560 H   0  0  0  0  0  0  0  0  0  0  0  0
 13 20  1  0  0  0  0
 15 20  1  0  0  0  0
 14 15  2  0  0  0  0
  9 14  1  0  0  0  0
  9 19  1  0  0  0  0
  1 15  1  0  0  0  0
  3  9  2  0  0  0  0
  1  2  2  0  0  0  0
  2  3  1  0  0  0  0
  3 16  1  0  0  0  0
 16 18  2  0  0  0  0
  2 17  1  0  0  0  0
  5 16  1  0  0  0  0
  4 17  1  0  0  0  0
  4  5  1  0  0  0  0
  5 21  1  0  0  0  0
  4  6  1  0  0  0  0
  6  8  2  0  0  0  0
  6 10  1  0  0  0  0
  8 12  1  0  0  0  0
 10 11  2  0  0  0  0
 12 22  1  0  0  0  0
  7 12  2  0  0  0  0
  7 11  1  0  0  0  0
 11 24  1  0  0  0  0
  7 23  1  0  0  0  0
  1 25  1  0  0  0  0
  4 26  1  0  0  0  0
  5 27  1  0  0  0  0
  8 28  1  0  0  0  0
 10 29  1  0  0  0  0
 13 30  1  0  0  0  0
 13 31  1  0  0  0  0
 13 32  1  0  0  0  0
 14 33  1  0  0  0  0
 19 34  1  0  0  0  0
 21 35  1  0  0  0  0
 22 36  1  0  0  0  0
 23 37  1  0  0  0  0
 24 38  1  0  0  0  0
M  END
> <OPENEYE_ISO_SMILES>
COc1cc(c2c(c1)O[C@H]([C@@H](C2=O)O)c3cc(c(c(c3)O)O)O)O

> <OPENEYE_INCHI>
InChI=1S/C16H14O8/c1-23-7-4-8(17)12-11(5-7)24-16(15(22)14(12)21)6-2-9(18)13(20)10(19)3-6/h2-5,15-20,22H,1H3/t15-,16+/m1/s1

> <OPENEYE_INCHIKEY>
OEYMPTGVGRACKD-CVEARBPZSA-N

> <FORMULA>
C16H14O8

$$$$
