@<TRIPOS>MOLECULE
/home/pku/3cl/gett_pdb/7KQP/7KQP_mol2/ligand/7KQP_AR6.pdb
 57 60 0 0 0
SMALL
GASTEIGER

@<TRIPOS>ATOM
      1  N1       -14.9610   -1.6320    4.0680 N.2   201  AR6201     -0.2420
      2  C2       -14.6990   -0.4480    3.5100 C.2   201  AR6201      0.1049
      3  N3       -14.5600   -0.1920    2.2090 N.pl3 201  AR6201     -0.1840
      4  C4       -14.7530   -1.2780    1.4360 C.ar  201  AR6201      0.1528
      5  C5       -15.0640   -2.5530    1.8980 C.ar  201  AR6201      0.1287
      6  C6       -15.1660   -2.7060    3.2860 C.3   201  AR6201      0.2004
      7  N6       -15.4770   -3.9110    3.8890 N.3   201  AR6201     -0.2985
      8  N7       -15.2030   -3.4110    0.8280 N.ar  201  AR6201     -0.2346
      9  C8       -14.9890   -2.6590   -0.2410 C.ar  201  AR6201      0.0999
     10  N9       -14.6930   -1.3740    0.0920 N.ar  201  AR6201     -0.2877
     11  PA       -18.0560   -1.4710   -3.6700 P.3   201  AR6201      0.2182
     12  PB       -19.6360    0.1610   -5.5610 P.3   201  AR6201      0.2182
     13  C1'      -14.3950   -0.2410   -0.7900 C.3   201  AR6201      0.1665
     14  O1A      -17.6400   -2.4280   -4.7440 O.co2 201  AR6201     -0.5170
     15  O1B      -18.4200    0.4020   -6.3980 O.2   201  AR6201     -0.5170
     16  C1D      -21.6190   -4.5820   -4.2930 C.3   201  AR6201      0.1854
     17  O1D      -21.3410   -5.6920   -4.9690 O.3   201  AR6201     -0.3649
     18  C2'      -13.9390   -0.5030   -2.1070 C.3   201  AR6201      0.1285
     19  O2'      -12.5160   -0.7320   -2.0480 O.3   201  AR6201     -0.3847
     20  O2A      -18.4990   -2.0300   -2.3650 O.3   201  AR6201     -0.4371
     21  O2B      -20.5440    1.2900   -5.2440 O.co2 201  AR6201     -0.4371
     22  C2D      -23.1020   -4.0770   -4.3410 C.3   201  AR6201      0.1339
     23  O2D      -24.0050   -5.1800   -4.0260 O.3   201  AR6201     -0.3841
     24  C3'      -14.3470    0.7460   -2.9140 C.3   201  AR6201      0.1135
     25  O3'      -13.4030    1.7900   -2.7880 O.3   201  AR6201     -0.3864
     26  O3A      -19.2190   -0.4760   -4.1340 O.3   201  AR6201     -0.2703
     27  C3D      -23.2700   -3.4400   -5.5360 C.3   201  AR6201      0.1141
     28  O3D      -23.7450   -4.3070   -6.6160 O.3   201  AR6201     -0.3864
     29  C4'      -15.6450    1.1530   -2.1620 C.3   201  AR6201      0.1133
     30  O4'      -15.6720    0.5110   -0.9440 O.3   201  AR6201     -0.3456
     31  C4D      -21.8310   -2.9000   -5.8810 C.3   201  AR6201      0.1138
     32  O4D      -20.9610   -3.4400   -4.9490 O.3   201  AR6201     -0.3407
     33  C5'      -16.9400    0.8080   -2.9320 C.3   201  AR6201      0.0836
     34  O5'      -16.7930   -0.4970   -3.4560 O.3   201  AR6201     -0.3246
     35  C5D      -21.7060   -1.4080   -5.7510 C.3   201  AR6201      0.0837
     36  O5D      -20.4360   -1.0320   -6.2540 O.3   201  AR6201     -0.3246
     37  H2       -14.6020    0.2720    4.0880 H     201  AR6201      0.1015
     38  HN6      -14.8550   -4.4860    4.0360 H     201  AR6201      0.1209
     39 HN6A      -16.2870   -4.0820    4.1170 H     201  AR6201      0.1209
     40  H8       -15.0350   -2.9720   -1.1140 H     201  AR6201      0.1030
     41  H1'      -13.6790    0.2350   -0.4130 H     201  AR6201      0.0866
     42  H1D      -21.3780   -4.7660   -3.4040 H     201  AR6201      0.0935
     43  H2'      -14.3530   -1.2440   -2.5090 H     201  AR6201      0.0665
     44 HO2'      -12.2930   -1.2160   -2.6880 H     201  AR6201      0.2101
     45  H2D      -23.2710   -3.4020   -3.7100 H     201  AR6201      0.0671
     46 HO2D      -24.3770   -5.0650   -3.2710 H     201  AR6201      0.2101
     47  H3'      -14.4620    0.5500   -3.8250 H     201  AR6201      0.0647
     48 HO3'      -13.1850    2.0340   -3.5490 H     201  AR6201      0.2100
     49  H3D      -23.9020   -2.7560   -5.4220 H     201  AR6201      0.0648
     50 HO3D      -23.6920   -3.9000   -7.3600 H     201  AR6201      0.2100
     51  H4'      -15.5720    2.0810   -2.0380 H     201  AR6201      0.0647
     52  H4D      -21.6550   -3.1830   -6.7590 H     201  AR6201      0.0647
     53  H5'      -17.6750    0.8370   -2.3480 H     201  AR6201      0.0591
     54 H5'A      -17.0680    1.4210   -3.6320 H     201  AR6201      0.0591
     55  H5D      -21.7790   -1.1520   -4.8190 H     201  AR6201      0.0591
     56 H5DA      -22.4050   -0.9740   -6.2650 H     201  AR6201      0.0591
     57  HD1      -20.7800   -6.1650   -4.5420 H     201  AR6201      0.2126
@<TRIPOS>UNITY_ATOM_ATTR
14 1
charge -1
21 1
charge -1
@<TRIPOS>BOND
     1    50    28    1
     2    52    31    1
     3    28    27    1
     4    15    12    2
     5    56    35    1
     6    36    35    1
     7    36    12    1
     8    31    35    1
     9    31    27    1
    10    31    32    1
    11    35    55    1
    12    12    21    1
    13    12    26    1
    14    27    49    1
    15    27    22    1
    16    17    57    1
    17    17    16    1
    18    32    16    1
    19    14    11    2
    20    22    16    1
    21    22    23    1
    22    22    45    1
    23    16    42    1
    24    26    11    1
    25    23    46    1
    26    47    24    1
    27    11    34    1
    28    11    20    1
    29    54    33    1
    30    48    25    1
    31    34    33    1
    32    33    53    1
    33    33    29    1
    34    24    25    1
    35    24    29    1
    36    24    18    1
    37    44    19    1
    38    43    18    1
    39    29    51    1
    40    29    30    1
    41    18    19    1
    42    18    13    1
    43    40     9    1
    44    30    13    1
    45    13    41    1
    46    13    10    1
    47     9    10   ar
    48     9     8   ar
    49    10     4   ar
    50     8     5   ar
    51     4     5   ar
    52     4     3    1
    53     5     6    1
    54     3     2    1
    55     6     7    1
    56     6     1    1
    57     2     1    2
    58     2    37    1
    59     7    38    1
    60     7    39    1
