QS6
  -OEChem-02242320033D

 30 32  0     1  0  0  0  0  0999 V2000
    2.8180    0.4580    0.9700 C   0  0  0  0  0  0  0  0  0  0  0  0
   -2.0160   -2.1750    0.2240 C   0  0  0  0  0  0  0  0  0  0  0  0
   -3.1630   -0.1940   -0.0110 C   0  0  0  0  0  0  0  0  0  0  0  0
   -3.5970    1.9960   -0.2340 C   0  0  0  0  0  0  0  0  0  0  0  0
    4.1070   -0.0040    0.2460 C   0  0  1  0  0  0  0  0  0  0  0  0
    3.6190   -0.2350   -1.2060 C   0  0  0  0  0  0  0  0  0  0  0  0
    2.2120   -0.8450   -1.0390 C   0  0  0  0  0  0  0  0  0  0  0  0
    1.7020   -0.4050    0.3440 C   0  0  2  0  0  0  0  0  0  0  0  0
   -0.7530   -0.2450    0.1630 C   0  0  0  0  0  0  0  0  0  0  0  0
   -1.9360    0.4940    0.0140 C   0  0  0  0  0  0  0  0  0  0  0  0
   -2.2600    1.9120   -0.1290 C   0  0  0  0  0  0  0  0  0  0  0  0
    0.4780    0.3860    0.1990 N   0  0  0  0  0  0  0  0  0  0  0  0
   -4.1490    0.7440   -0.1520 N   0  0  0  0  0  0  0  0  0  0  0  0
   -3.1510   -1.5210    0.0970 N   0  0  0  0  0  0  0  0  0  0  0  0
   -0.8430   -1.5680    0.2580 N   0  0  0  0  0  0  0  0  0  0  0  0
    5.1050    1.0180    0.2880 O   0  0  0  0  0  0  0  0  0  0  0  0
    2.8920    0.2670    2.0410 H   0  0  0  0  0  0  0  0  0  0  0  0
    2.6310    1.5160    0.7840 H   0  0  0  0  0  0  0  0  0  0  0  0
   -2.0450   -3.2510    0.3100 H   0  0  0  0  0  0  0  0  0  0  0  0
   -4.1540    2.9140   -0.3510 H   0  0  0  0  0  0  0  0  0  0  0  0
    4.4840   -0.9280    0.6820 H   0  0  0  0  0  0  0  0  0  0  0  0
    3.5630    0.7110   -1.7450 H   0  0  0  0  0  0  0  0  0  0  0  0
    4.2800   -0.9300   -1.7240 H   0  0  0  0  0  0  0  0  0  0  0  0
    1.5480   -0.4710   -1.8190 H   0  0  0  0  0  0  0  0  0  0  0  0
    2.2690   -1.9330   -1.0880 H   0  0  0  0  0  0  0  0  0  0  0  0
    1.5120   -1.2780    0.9670 H   0  0  0  0  0  0  0  0  0  0  0  0
   -1.5590    2.7330   -0.1590 H   0  0  0  0  0  0  0  0  0  0  0  0
    0.5300    1.3520    0.1280 H   0  0  0  0  0  0  0  0  0  0  0  0
   -5.0980    0.5500   -0.2000 H   0  0  0  0  0  0  0  0  0  0  0  0
    5.9320    0.7790   -0.1520 H   0  0  0  0  0  0  0  0  0  0  0  0
  5 16  1  0  0  0  0
  5  6  1  0  0  0  0
  6  7  1  0  0  0  0
  7  8  1  0  0  0  0
  9 12  1  0  0  0  0
  9 10  2  0  0  0  0
 10 11  1  0  0  0  0
  4 11  2  0  0  0  0
  4 13  1  0  0  0  0
  3 13  1  0  0  0  0
  3 14  2  0  0  0  0
  2 14  1  0  0  0  0
  2 15  2  0  0  0  0
  8 12  1  0  0  0  0
  1  8  1  0  0  0  0
  1  5  1  0  0  0  0
  9 15  1  0  0  0  0
  3 10  1  0  0  0  0
  1 17  1  0  0  0  0
  1 18  1  0  0  0  0
  2 19  1  0  0  0  0
  4 20  1  0  0  0  0
  5 21  1  0  0  0  0
  6 22  1  0  0  0  0
  6 23  1  0  0  0  0
  7 24  1  0  0  0  0
  7 25  1  0  0  0  0
  8 26  1  0  0  0  0
 11 27  1  0  0  0  0
 12 28  1  0  0  0  0
 13 29  1  0  0  0  0
 16 30  1  0  0  0  0
M  END
> <OPENEYE_ISO_SMILES>
c1c[nH]c2c1c(ncn2)N[C@H]3CC[C@H](C3)O

> <OPENEYE_INCHI>
InChI=1S/C11H14N4O/c16-8-2-1-7(5-8)15-11-9-3-4-12-10(9)13-6-14-11/h3-4,6-8,16H,1-2,5H2,(H2,12,13,14,15)/t7-,8+/m0/s1

> <OPENEYE_INCHIKEY>
AVBQUGKPWKWVAT-JGVFFNPUSA-N

> <FORMULA>
C11H14N4O

$$$$
