@<TRIPOS>MOLECULE
/home/pku/3cl/gett_pdb/7NW2/7NW2_mol2/ligand/7NW2_USZ.pdb
 34 36 0 0 0
SMALL
GASTEIGER

@<TRIPOS>ATOM
      1  N1       -19.9350    7.1320   28.9670 N.am  401  USZ401     -0.2034
      2  C4       -19.6360    5.9530   28.4210 C.2   401  USZ401      0.2642
      3  C5       -19.7340    7.3930   30.3880 C.3   401  USZ401      0.1199
      4  C6       -20.8440    6.7900   31.2510 C.3   401  USZ401      0.0498
      5  C7       -20.3630    6.2320   32.5720 C.ar  401  USZ401     -0.0182
      6  C8       -20.0260    7.0840   33.6210 C.ar  401  USZ401      0.0254
      7  C10      -19.4450    5.1920   35.0080 C.ar  401  USZ401      0.0296
      8  C13      -18.6330    5.5190   26.1280 C.ar  401  USZ401      0.0241
      9  C15      -16.1740    4.9350   25.0750 C.ar  401  USZ401      0.0989
     10  C17      -17.8200    6.5430   25.6630 C.ar  401  USZ401      0.0010
     11  C20      -23.6750    5.0220   29.3140 C.ar  401  USZ401     -0.0030
     12  C21      -23.4970    3.7760   29.9110 C.ar  401  USZ401     -0.0227
     13  C22      -22.5080    2.9380   29.3990 C.ar  401  USZ401     -0.0030
     14  C24      -24.3870    3.3610   31.0920 C.3   401  USZ401      0.0189
     15  C26      -24.1590    1.9060   31.5350 C.3   401  USZ401      0.0044
     16  F        -19.2330    7.3830   35.8170 F     401  USZ401     -0.2042
     17  C9       -19.5740    6.5390   34.8030 C.ar  401  USZ401      0.1398
     18  C11      -19.7940    4.3440   33.9690 C.ar  401  USZ401      0.0020
     19  C12      -20.2470    4.8610   32.7630 C.ar  401  USZ401     -0.0041
     20  O1       -19.1630    5.0230   29.0590 O.2   401  USZ401     -0.2712
     21  C3       -19.9050    5.8260   26.9100 C.3   401  USZ401      0.1817
     22  C16      -16.5710    6.2590   25.1380 C.ar  401  USZ401      0.0204
     23  N2       -16.9430    3.9190   25.4850 N.ar  401  USZ401     -0.2426
     24  C14      -18.1460    4.2240   25.9920 C.ar  401  USZ401      0.0967
     25  N        -21.0970    4.9840   26.6200 N.am  401  USZ401     -0.2480
     26  C2       -21.4560    4.7060   25.3290 C.2   401  USZ401      0.2299
     27  C1       -22.5850    3.7260   25.0950 C.3   401  USZ401      0.0857
     28  C        -22.1300    2.5430   24.2610 C.3   401  USZ401      0.0101
     29  O        -20.8920    5.2250   24.3760 O.2   401  USZ401     -0.2745
     30  C18      -21.9080    4.5720   27.7350 C.ar  401  USZ401      0.0545
     31  C23      -21.7260    3.3220   28.3220 C.ar  401  USZ401      0.0146
     32  C27      -25.8630    3.4990   30.7010 C.3   401  USZ401      0.0044
     33  C25      -24.1050    4.2700   32.2940 C.3   401  USZ401      0.0044
     34  C19      -22.8970    5.4210   28.2400 C.ar  401  USZ401      0.0146
@<TRIPOS>BOND
     1    28    27    1
     2    29    26    2
     3     9    22   ar
     4     9    23   ar
     5    27    26    1
     6    22    10   ar
     7    26    25   am
     8    23    24   ar
     9    10     8   ar
    10    24     8   ar
    11     8    21    1
    12    25    21    1
    13    25    30    1
    14    21     2    1
    15    30    34   ar
    16    30    31   ar
    17    34    11   ar
    18    31    13   ar
    19     2     1   am
    20     2    20    2
    21     1     3    1
    22    11    12   ar
    23    13    12   ar
    24    12    14    1
    25     3     4    1
    26    32    14    1
    27    14    15    1
    28    14    33    1
    29     4     5    1
    30     5    19   ar
    31     5     6   ar
    32    19    18   ar
    33     6    17   ar
    34    18     7   ar
    35    17     7   ar
    36    17    16    1
