@<TRIPOS>MOLECULE
/home/pku/3cl/gett_pdb/5SSN/5SSN_mol2/ligand/5SSN_RS9.pdb
 43 46 0 0 0
SMALL
GASTEIGER

@<TRIPOS>ATOM
      1  C18      -42.6980  -28.4410    1.0930 C.3   201  RS9201     -0.0140
      2  C15      -43.1550  -30.3290    2.7130 C.2   201  RS9201      0.0472
      3  C14      -43.5600  -28.9410    2.2310 C.3   201  RS9201      0.0252
      4  C13      -44.9300  -29.0120    1.6120 C.3   201  RS9201      0.0572
      5  C11      -47.3020  -28.9620    2.5270 C.2   201  RS9201      0.2446
      6  C10      -48.1220  -29.0230    3.8000 C.ar  201  RS9201      0.0388
      7  C20      -43.3770  -26.3860   -0.4640 C.ar  201  RS9201      0.1204
      8  C19      -43.6460  -27.4640    0.3710 C.ar  201  RS9201     -0.0003
      9  C02      -53.0810  -29.7030    7.0990 C.3   201  RS9201      0.1018
     10  C03      -51.7380  -29.5280    6.3980 C.ar  201  RS9201      0.1338
     11  C05      -50.2300  -29.3180    4.8780 C.ar  201  RS9201      0.0899
     12  C06      -49.6270  -29.2230    6.1060 C.ar  201  RS9201      0.0663
     13  C08      -48.2530  -29.0390    6.2050 C.ar  201  RS9201     -0.0355
     14  C09      -47.5040  -28.9450    5.0470 C.ar  201  RS9201     -0.0476
     15  C22      -44.4420  -25.6690   -0.9870 C.ar  201  RS9201     -0.0199
     16  C23      -45.7580  -25.9980   -0.6920 C.ar  201  RS9201     -0.0580
     17  C24      -46.0250  -27.0650    0.1400 C.ar  201  RS9201     -0.0563
     18  C25      -44.9630  -27.7940    0.6760 C.ar  201  RS9201     -0.0199
     19  C27      -49.4840  -29.2170    3.7060 C.ar  201  RS9201     -0.0221
     20  N04      -51.5300  -29.5060    5.1010 N.ar  201  RS9201     -0.2301
     21  N07      -50.5950  -29.3590    7.0130 N.ar  201  RS9201     -0.3400
     22  N12      -45.8630  -29.0060    2.7000 N.am  201  RS9201     -0.3039
     23  O01      -54.0230  -30.2030    6.1900 O.3   201  RS9201     -0.3874
     24  O16      -43.4060  -30.6730    3.8960 O.co2 201  RS9201     -0.5495
     25  O17      -42.5710  -31.1320    1.9340 O.co2 201  RS9201     -0.5495
     26  O21      -42.0580  -26.0310   -0.7790 O.3   201  RS9201     -0.5065
     27  O26      -47.8210  -28.9540    1.4650 O.2   201  RS9201     -0.2702
     28 H182      -41.8250  -27.9080    1.4520 H     201  RS9201      0.0321
     29 H181      -42.4360  -29.2630    0.4240 H     201  RS9201      0.0321
     30 H141      -43.5470  -28.2020    3.0370 H     201  RS9201      0.0385
     31 H131      -45.0320  -29.9230    1.0390 H     201  RS9201      0.0555
     32 H022      -52.9770  -30.4010    7.9190 H     201  RS9201      0.0638
     33 H021      -53.4220  -28.7390    7.4730 H     201  RS9201      0.0638
     34 H081      -47.7990  -28.9880    7.1810 H     201  RS9201      0.0639
     35 H091      -46.4410  -28.8100    5.1250 H     201  RS9201      0.0626
     36 H221      -44.2520  -24.8410   -1.6370 H     201  RS9201      0.0654
     37 H231      -46.5780  -25.4340   -1.1140 H     201  RS9201      0.0619
     38 H241      -47.0460  -27.3390    0.3730 H     201  RS9201      0.0621
     39 H271      -49.9670  -29.2890    2.7420 H     201  RS9201      0.0647
     40 H071      -50.4960  -29.3480    7.9910 H     201  RS9201      0.1671
     41 H121      -45.4870  -29.0390    3.6270 H     201  RS9201      0.1496
     42 H011      -54.8490  -30.3050    6.6330 H     201  RS9201      0.2100
     43 H211      -42.0620  -25.5680   -1.6000 H     201  RS9201      0.2921
@<TRIPOS>UNITY_ATOM_ATTR
24 1
charge -1
@<TRIPOS>BOND
     1    36    15    1
     2    43    26    1
     3    37    16    1
     4    15    16   ar
     5    15     7   ar
     6    26     7    1
     7    16    17   ar
     8     7     8   ar
     9    17    38    1
    10    17    18   ar
    11     8    18   ar
    12     8     1    1
    13    29     1    1
    14    18     4    1
    15    31     4    1
    16     1    28    1
    17     1     3    1
    18    27     5    2
    19     4     3    1
    20     4    22    1
    21    25     2   ar
    22     3     2    1
    23     3    30    1
    24     5    22   am
    25     5     6    1
    26    22    41    1
    27     2    24   ar
    28    39    19    1
    29    19     6   ar
    30    19    11   ar
    31     6    14   ar
    32    11    20   ar
    33    11    12   ar
    34    14    35    1
    35    14    13   ar
    36    20    10   ar
    37    12    13   ar
    38    12    21   ar
    39    23    42    1
    40    23     9    1
    41    13    34    1
    42    10    21   ar
    43    10     9    1
    44    21    40    1
    45     9    33    1
    46     9    32    1
