@<TRIPOS>MOLECULE
/home/pku/3cl/gett_pdb/7M00/7M00_mol2/ligand/7M00_YKA.pdb
 33 34 0 0 0
SMALL
GASTEIGER

@<TRIPOS>ATOM
      1  C01      -14.0880    3.0220   40.1630 C.3   401  YKA401      0.0437
      2  C02      -14.6720    3.1490   41.5630 C.3   401  YKA401      0.1376
      3  C04      -13.8230    0.9650   42.3600 C.2   401  YKA401      0.4213
      4  C06      -13.2460   -1.3330   42.9570 C.3   401  YKA401      0.1761
      5  C07      -13.7540   -2.4730   43.8720 C.3   401  YKA401      0.0312
      6  C08      -14.0270   -2.0860   45.3280 C.3   401  YKA401      0.0022
      7  C09      -12.8380   -1.3690   45.9640 C.3   401  YKA401      0.0001
      8  C10      -14.4660   -3.2650   46.1810 C.3   401  YKA401      0.0001
      9  C11      -13.1570   -1.8330   41.5220 C.2   401  YKA401      0.2614
     10  C13      -11.8960   -2.8780   39.5910 C.3   401  YKA401      0.1287
     11  C14      -10.9310   -1.9750   38.7710 C.3   401  YKA401      0.0339
     12  C15      -11.2270   -0.4670   38.9080 C.3   401  YKA401      0.0861
     13  C16      -10.2420    0.4470   38.1970 C.2   401  YKA401      0.2453
     14  C18      -12.3210    0.9840   37.1600 C.2   401  YKA401      0.0627
     15  C19      -12.5570   -0.0830   38.2680 C.3   401  YKA401      0.0534
     16  C21      -11.4280   -4.3760   39.6030 C.3   401  YKA401      0.2036
     17  C25      -16.1110    3.7170   41.3820 C.3   401  YKA401      0.0437
     18  C26      -13.8680    4.0910   42.4890 C.3   401  YKA401      0.0372
     19  C27      -13.9810    5.6300   42.3560 C.3   401  YKA401      0.0091
     20  C28      -13.0400    6.4250   43.2370 C.3   401  YKA401      0.0667
     21  C29      -13.2210    6.0510   44.7320 C.3   401  YKA401      0.2639
     22  C32      -13.1850    4.5130   44.9090 C.3   401  YKA401      0.0667
     23  C33      -14.1430    3.8210   43.9660 C.3   401  YKA401      0.0091
     24  F30      -12.2740    6.6630   45.4790 F     401  YKA401     -0.2043
     25  F31      -14.3830    6.5320   45.2260 F     401  YKA401     -0.2043
     26  N05      -14.1650   -0.2250   42.9930 N.am  401  YKA401     -0.1611
     27  N12      -12.0170   -2.4120   40.9930 N.am  401  YKA401     -0.2030
     28  N17      -10.8870    1.2410   37.2480 N.am  401  YKA401     -0.1826
     29  O03      -14.8370    1.8660   42.1580 O.3   401  YKA401     -0.4408
     30  O20       -9.0430    0.5220   38.4260 O.2   401  YKA401     -0.2730
     31  O22      -12.4600   -5.0630   40.2400 O.3   401  YKA401     -0.2185
     32  O23      -14.1430   -1.6880   40.8100 O.2   401  YKA401     -0.2715
     33  O24      -12.6450    1.2010   42.0290 O.2   401  YKA401     -0.2246
@<TRIPOS>BOND
     1    14    28    2
     2    14    15    1
     3    28    13    1
     4    13    30    2
     5    13    12    1
     6    15    12    1
     7    11    12    1
     8    11    10    1
     9    10    16    1
    10    10    27    1
    11    16    31    1
    12     1     2    1
    13    32     9    2
    14    27     9   am
    15    17     2    1
    16     9     4    1
    17     2    29    1
    18     2    18    1
    19    33     3    2
    20    29     3    1
    21    19    18    1
    22    19    20    1
    23     3    26   am
    24    18    23    1
    25     4    26    1
    26     4     5    1
    27    20    21    1
    28     5     6    1
    29    23    22    1
    30    21    22    1
    31    21    25    1
    32    21    24    1
    33     6     7    1
    34     6     8    1
