HUR
  -OEChem-02242320023D

 74 78  0     1  0  0  0  0  0999 V2000
    8.9450   -1.8300   -0.8030 C   0  0  0  0  0  0  0  0  0  0  0  0
    3.8260    1.2050    0.2700 C   0  0  0  0  0  0  0  0  0  0  0  0
    1.4440    1.7020    0.1550 C   0  0  2  0  0  0  0  0  0  0  0  0
    0.2150    0.8450   -0.0060 C   0  0  0  0  0  0  0  0  0  0  0  0
   -2.0700    0.2540    0.6000 C   0  0  1  0  0  0  0  0  0  0  0  0
   -1.9720   -0.7960    1.7080 C   0  0  0  0  0  0  0  0  0  0  0  0
   -3.0910   -1.8250    1.5360 C   0  0  2  0  0  0  0  0  0  0  0  0
   -3.1210   -2.7980    2.7380 C   0  0  0  0  0  0  0  0  0  0  0  0
   -3.4970   -4.1310    2.0550 C   0  0  0  0  0  0  0  0  0  0  0  0
   -2.8150   -2.7140    0.3430 C   0  0  0  0  0  0  0  0  0  0  0  0
   -3.3340    1.0560    0.7780 C   0  0  0  0  0  0  0  0  0  0  0  0
    8.1280   -2.5670   -1.6480 C   0  0  0  0  0  0  0  0  0  0  0  0
   -4.5860    0.6030    0.1530 C   0  0  0  0  0  0  0  0  0  0  0  0
   -6.7920    0.6310   -0.2990 C   0  0  0  0  0  0  0  0  0  0  0  0
   -6.4570   -0.4730   -1.1000 C   0  0  0  0  0  0  0  0  0  0  0  0
   -8.1460    1.0430   -0.2610 C   0  0  0  0  0  0  0  0  0  0  0  0
   -9.0890    0.3820   -0.9820 C   0  0  0  0  0  0  0  0  0  0  0  0
   -8.7480   -0.7100   -1.7710 C   0  0  0  0  0  0  0  0  0  0  0  0
   -7.4420   -1.1360   -1.8320 C   0  0  0  0  0  0  0  0  0  0  0  0
    1.2990    2.9650   -0.6950 C   0  0  0  0  0  0  0  0  0  0  0  0
    0.1500    3.8170   -0.1520 C   0  0  0  0  0  0  0  0  0  0  0  0
    0.4920    4.2930    1.2620 C   0  0  0  0  0  0  0  0  0  0  0  0
    6.7910   -2.2640   -1.7760 C   0  0  0  0  0  0  0  0  0  0  0  0
   -0.0610    5.0290   -1.0610 C   0  0  0  0  0  0  0  0  0  0  0  0
    6.2430   -1.2090   -1.0530 C   0  0  0  0  0  0  0  0  0  0  0  0
    7.0650   -0.4550   -0.1930 C   0  0  0  0  0  0  0  0  0  0  0  0
    8.4280   -0.7770   -0.0750 C   0  0  0  0  0  0  0  0  0  0  0  0
    4.9880    0.3790   -0.0880 C   0  0  0  0  0  0  0  0  0  0  0  0
    6.2470    0.5350    0.3990 C   0  0  0  0  0  0  0  0  0  0  0  0
   10.6020   -0.4520    0.8280 C   0  0  0  0  0  0  0  0  0  0  0  0
    4.9750   -0.6830   -0.9750 N   0  0  0  0  0  0  0  0  0  0  0  0
    2.6230    0.9510   -0.2820 N   0  0  0  0  0  0  0  0  0  0  0  0
   -0.9110    1.1480    0.6700 N   0  0  0  0  0  0  0  0  0  0  0  0
   -3.0430   -4.0010    0.6650 N   0  0  0  0  0  0  0  0  0  0  0  0
   -5.7420    1.1500    0.3350 N   0  0  0  0  0  0  0  0  0  0  0  0
    9.2290   -0.0620    0.7550 O   0  0  0  0  0  0  0  0  0  0  0  0
    3.9510    2.1180    1.0640 O   0  0  0  0  0  0  0  0  0  0  0  0
    0.2390   -0.1180   -0.7430 O   0  0  0  0  0  0  0  0  0  0  0  0
   -3.3190    2.0740    1.4370 O   0  0  0  0  0  0  0  0  0  0  0  0
   -2.4410   -2.3220   -0.7430 O   0  0  0  0  0  0  0  0  0  0  0  0
   -4.7230   -0.7550   -0.9550 S   0  0  0  0  0  0  0  0  0  0  0  0
    9.9910   -2.0830   -0.7110 H   0  0  0  0  0  0  0  0  0  0  0  0
    1.5580    1.9800    1.2030 H   0  0  0  0  0  0  0  0  0  0  0  0
   -2.0890   -0.2420   -0.3700 H   0  0  0  0  0  0  0  0  0  0  0  0
   -1.0060   -1.2970    1.6490 H   0  0  0  0  0  0  0  0  0  0  0  0
   -2.0710   -0.3100    2.6790 H   0  0  0  0  0  0  0  0  0  0  0  0
   -4.0540   -1.3260    1.4250 H   0  0  0  0  0  0  0  0  0  0  0  0
   -2.1410   -2.8640    3.2110 H   0  0  0  0  0  0  0  0  0  0  0  0
   -3.8810   -2.5010    3.4610 H   0  0  0  0  0  0  0  0  0  0  0  0
   -2.9860   -4.9620    2.5420 H   0  0  0  0  0  0  0  0  0  0  0  0
   -4.5760   -4.2810    2.0880 H   0  0  0  0  0  0  0  0  0  0  0  0
    8.5460   -3.3880   -2.2130 H   0  0  0  0  0  0  0  0  0  0  0  0
   -8.4310    1.8890    0.3470 H   0  0  0  0  0  0  0  0  0  0  0  0
  -10.1180    0.7090   -0.9400 H   0  0  0  0  0  0  0  0  0  0  0  0
   -9.5100   -1.2250   -2.3380 H   0  0  0  0  0  0  0  0  0  0  0  0
   -7.1790   -1.9850   -2.4460 H   0  0  0  0  0  0  0  0  0  0  0  0
    2.2260    3.5380   -0.6550 H   0  0  0  0  0  0  0  0  0  0  0  0
    1.0880    2.6870   -1.7270 H   0  0  0  0  0  0  0  0  0  0  0  0
   -0.7620    3.2210   -0.1230 H   0  0  0  0  0  0  0  0  0  0  0  0
    1.4520    4.8090    1.2490 H   0  0  0  0  0  0  0  0  0  0  0  0
   -0.2820    4.9750    1.6130 H   0  0  0  0  0  0  0  0  0  0  0  0
    0.5500    3.4340    1.9300 H   0  0  0  0  0  0  0  0  0  0  0  0
    6.1660   -2.8460   -2.4380 H   0  0  0  0  0  0  0  0  0  0  0  0
   -0.3040    4.6900   -2.0680 H   0  0  0  0  0  0  0  0  0  0  0  0
   -0.8790    5.6360   -0.6740 H   0  0  0  0  0  0  0  0  0  0  0  0
    0.8510    5.6250   -1.0890 H   0  0  0  0  0  0  0  0  0  0  0  0
    6.5660    1.2820    1.1120 H   0  0  0  0  0  0  0  0  0  0  0  0
   10.6680   -1.4840    1.1730 H   0  0  0  0  0  0  0  0  0  0  0  0
   11.0560   -0.3700   -0.1600 H   0  0  0  0  0  0  0  0  0  0  0  0
   11.1290    0.1990    1.5250 H   0  0  0  0  0  0  0  0  0  0  0  0
    4.1990   -1.0030   -1.4610 H   0  0  0  0  0  0  0  0  0  0  0  0
    2.5380    0.2710   -0.9690 H   0  0  0  0  0  0  0  0  0  0  0  0
   -0.9550    1.9570    1.2020 H   0  0  0  0  0  0  0  0  0  0  0  0
   -2.9250   -4.7470    0.0560 H   0  0  0  0  0  0  0  0  0  0  0  0
 10 34  1  0  0  0  0
  9 34  1  0  0  0  0
 10 40  2  0  0  0  0
  7 10  1  0  0  0  0
  8  9  1  0  0  0  0
  7  8  1  0  0  0  0
  6  7  1  0  0  0  0
 11 39  2  0  0  0  0
  5  6  1  0  0  0  0
  5 11  1  0  0  0  0
 11 13  1  0  0  0  0
  5 33  1  0  0  0  0
 13 35  2  0  0  0  0
 13 41  1  0  0  0  0
 14 35  1  0  0  0  0
  4 33  1  0  0  0  0
  4 38  2  0  0  0  0
  3  4  1  0  0  0  0
 14 16  2  0  0  0  0
 14 15  1  0  0  0  0
 15 41  1  0  0  0  0
  2 37  2  0  0  0  0
 16 17  1  0  0  0  0
 15 19  2  0  0  0  0
 28 31  1  0  0  0  0
 25 31  1  0  0  0  0
  2 28  1  0  0  0  0
  2 32  1  0  0  0  0
  3 32  1  0  0  0  0
  3 20  1  0  0  0  0
 17 18  2  0  0  0  0
 28 29  2  0  0  0  0
 23 25  2  0  0  0  0
 12 23  1  0  0  0  0
 18 19  1  0  0  0  0
 25 26  1  0  0  0  0
 20 21  1  0  0  0  0
  1 12  2  0  0  0  0
 26 29  1  0  0  0  0
 26 27  2  0  0  0  0
 21 24  1  0  0  0  0
 21 22  1  0  0  0  0
  1 27  1  0  0  0  0
 27 36  1  0  0  0  0
 30 36  1  0  0  0  0
  1 42  1  0  0  0  0
  3 43  1  0  0  0  0
  5 44  1  0  0  0  0
  6 45  1  0  0  0  0
  6 46  1  0  0  0  0
  7 47  1  0  0  0  0
  8 48  1  0  0  0  0
  8 49  1  0  0  0  0
  9 50  1  0  0  0  0
  9 51  1  0  0  0  0
 12 52  1  0  0  0  0
 16 53  1  0  0  0  0
 17 54  1  0  0  0  0
 18 55  1  0  0  0  0
 19 56  1  0  0  0  0
 20 57  1  0  0  0  0
 20 58  1  0  0  0  0
 21 59  1  0  0  0  0
 22 60  1  0  0  0  0
 22 61  1  0  0  0  0
 22 62  1  0  0  0  0
 23 63  1  0  0  0  0
 24 64  1  0  0  0  0
 24 65  1  0  0  0  0
 24 66  1  0  0  0  0
 29 67  1  0  0  0  0
 30 68  1  0  0  0  0
 30 69  1  0  0  0  0
 30 70  1  0  0  0  0
 31 71  1  0  0  0  0
 32 72  1  0  0  0  0
 33 73  1  0  0  0  0
 34 74  1  0  0  0  0
M  END
> <OPENEYE_ISO_SMILES>
CC(C)C[C@@H](C(=O)N[C@@H](C[C@@H]1CCNC1=O)C(=O)c2nc3ccccc3s2)NC(=O)c4cc5c([nH]4)cccc5OC

> <OPENEYE_INCHI>
InChI=1S/C30H33N5O5S/c1-16(2)13-22(34-29(39)23-15-18-19(32-23)8-6-9-24(18)40-3)28(38)33-21(14-17-11-12-31-27(17)37)26(36)30-35-20-7-4-5-10-25(20)41-30/h4-10,15-17,21-22,32H,11-14H2,1-3H3,(H,31,37)(H,33,38)(H,34,39)/t17-,21-,22-/m0/s1

> <OPENEYE_INCHIKEY>
JBLLRCOZJMVOAE-HSQYWUDLSA-N

> <FORMULA>
C30H33N5O5S

$$$$
