@<TRIPOS>MOLECULE
/home/pku/3cl/gett_pdb/7DHJ/7DHJ_mol2/ligand/7DHJ_H6R.pdb
 28 29 0 0 0
SMALL
GASTEIGER

@<TRIPOS>ATOM
      1  C08      -11.8370   11.8030   69.7360 C.2   401  H6R401      0.2421
      2  O17      -12.2760   11.7690   68.6440 O.2   401  H6R401     -0.2733
      3  C09      -11.4040   10.5240   70.4910 C.3   401  H6R401      0.0915
      4  C10      -11.2360    9.4730   69.6760 C.3   401  H6R401      0.0360
      5  C11      -10.8130    8.2100   70.4710 C.ar  401  H6R401     -0.0217
      6  C12      -10.7250    6.9880   69.8250 C.ar  401  H6R401     -0.0043
      7  C13      -10.3530    5.8720   70.5290 C.ar  401  H6R401     -0.0003
      8  C14      -10.0680    5.9710   71.8690 C.ar  401  H6R401     -0.0000
      9  C15      -10.1630    7.1960   72.5070 C.ar  401  H6R401     -0.0003
     10  C16      -10.5330    8.3100   71.8140 C.ar  401  H6R401     -0.0043
     11  C06      -12.8990   15.0610   73.2730 C.1   401  H6R401     -0.0141
     12  C05      -12.3230   15.2090   72.2220 C.1   401  H6R401     -0.0756
     13  C04      -11.6030   15.4000   70.9070 C.3   401  H6R401      0.1080
     14  C03      -12.0650   14.3560   69.9060 C.3   401  H6R401      0.1856
     15  N07      -11.6790   13.0740   70.4670 N.am  401  H6R401     -0.1967
     16  C02      -11.4220   14.6390   68.5340 C.2   401  H6R401      0.2626
     17  O01      -10.3010   14.2960   68.2760 O.2   401  H6R401     -0.2714
     18  O28      -13.2900   12.6160   63.6920 O.2   401  H6R401     -0.2734
     19  C27      -12.2030   12.6140   64.1180 C.2   401  H6R401      0.2410
     20  N26      -10.9760   11.7140   63.5710 N.am  401  H6R401     -0.2054
     21  C25       -9.7340   12.0840   64.4960 C.3   401  H6R401      0.1156
     22  C24      -10.0130   13.2430   64.9830 C.3   401  H6R401      0.0326
     23  C23      -11.7260   13.3080   65.1210 C.3   401  H6R401      0.0821
     24  C22      -12.2320   14.7700   65.0910 C.3   401  H6R401      0.0389
     25  C19      -11.6400   15.6780   66.2280 C.3   401  H6R401      0.1601
     26  N18      -12.2400   15.3860   67.5060 N.am  401  H6R401     -0.1977
     27  C20      -11.9020   17.1880   65.9740 C.2   401  H6R401      0.2287
     28  O21      -11.3940   17.7310   65.0350 O.2   401  H6R401     -0.2864
@<TRIPOS>BOND
     1    20    19   am
     2    20    21    1
     3    18    19    2
     4    19    23    1
     5    21    22    1
     6    22    23    1
     7    28    27    2
     8    24    23    1
     9    24    25    1
    10    27    25    1
    11    25    26    1
    12    26    16   am
    13    17    16    2
    14    16    14    1
    15     2     1    2
    16     4     5    1
    17     4     3    1
    18     1    15   am
    19     1     3    1
    20     6     5   ar
    21     6     7   ar
    22    14    15    1
    23    14    13    1
    24     5    10   ar
    25     7     8   ar
    26    13    12    1
    27    10     9   ar
    28     8     9   ar
    29    12    11    3
