@<TRIPOS>MOLECULE
/home/pku/3cl/gett_pdb/5RSH/5RSH_mol2/ligand/5RSH_W5G.pdb
 33 36 0 0 0
SMALL
GASTEIGER

@<TRIPOS>ATOM
      1  N12      -45.3270  -29.0950    6.9250 N.ar  201  W5G201     -0.2178
      2  C13      -46.4610  -29.0120    6.1950 C.ar  201  W5G201      0.1432
      3  C15      -48.5330  -28.8190    5.3870 C.ar  201  W5G201      0.0042
      4  C17      -46.3990  -29.1070    4.8460 C.ar  201  W5G201      0.0585
      5  C01      -42.0080  -30.9380    0.9790 C.3   201  W5G201     -0.0454
      6  C02      -42.5650  -31.6040    2.2190 C.3   201  W5G201     -0.0454
      7  C03      -43.4700  -30.6490    1.3910 C.3   201  W5G201     -0.0134
      8  C04      -44.5160  -31.1840    0.4970 C.3   201  W5G201     -0.0445
      9  C05      -45.9140  -31.1260    0.9220 C.3   201  W5G201     -0.0366
     10  C06      -46.2850  -30.0410    1.9700 C.3   201  W5G201      0.0136
     11  C08      -43.8530  -29.2910    1.9860 C.3   201  W5G201      0.0192
     12  C09      -45.1410  -29.2780    4.2240 C.ar  201  W5G201      0.1338
     13  C11      -44.1630  -29.2500    6.3270 C.ar  201  W5G201      0.1204
     14  C16      -47.6950  -28.9910    4.3210 C.ar  201  W5G201     -0.0318
     15  N07      -45.1370  -29.3790    2.7660 N.pl3 201  W5G201     -0.3141
     16  N10      -44.0640  -29.3250    5.0050 N.ar  201  W5G201     -0.2200
     17  N14      -47.7840  -28.8390    6.4860 N.ar  201  W5G201     -0.3457
     18 H151      -49.4580  -28.7300    5.3520 H     201  W5G201      0.0807
     19 H011      -41.3780  -30.2190    1.1400 H     201  W5G201      0.0271
     20 H012      -41.8960  -31.5210    0.2120 H     201  W5G201      0.0271
     21 H021      -42.2450  -31.2490    3.0630 H     201  W5G201      0.0271
     22 H022      -42.7660  -32.5490    2.1320 H     201  W5G201      0.0271
     23 H042      -44.4500  -30.7060   -0.3440 H     201  W5G201      0.0272
     24 H041      -44.3040  -32.1150    0.3280 H     201  W5G201      0.0272
     25 H052      -46.1480  -31.9910    1.2940 H     201  W5G201      0.0281
     26 H051      -46.4580  -30.9760    0.1330 H     201  W5G201      0.0281
     27 H061      -46.8590  -30.5090    2.5900 H     201  W5G201      0.0464
     28 H062      -46.7970  -29.3460    1.5280 H     201  W5G201      0.0464
     29 H082      -43.9640  -28.6510    1.2660 H     201  W5G201      0.0469
     30 H081      -43.1430  -28.9920    2.5760 H     201  W5G201      0.0469
     31 H111      -43.3910  -29.3020    6.8430 H     201  W5G201      0.1048
     32 H161      -47.9440  -29.0180    3.4270 H     201  W5G201      0.0640
     33 H141      -48.0960  -28.7560    7.2830 H     201  W5G201      0.1668
@<TRIPOS>BOND
     1    23     8    1
     2    26     9    1
     3    20     5    1
     4    24     8    1
     5     8     9    1
     6     8     7    1
     7     9    25    1
     8     9    10    1
     9     5    19    1
    10     5     7    1
    11     5     6    1
    12    29    11    1
    13     7    11    1
    14     7     6    1
    15    28    10    1
    16    10    27    1
    17    10    15    1
    18    11    30    1
    19    11    15    1
    20    22     6    1
    21     6    21    1
    22    15    12    1
    23    32    14    1
    24    12     4   ar
    25    12    16   ar
    26    14     4   ar
    27    14     3   ar
    28     4     2   ar
    29    16    13   ar
    30    18     3    1
    31     3    17   ar
    32     2    17   ar
    33     2     1   ar
    34    13    31    1
    35    13     1   ar
    36    17    33    1
