W6V
  -OEChem-02242320043D

 22 23  0     0  0  0  0  0  0999 V2000
   -2.7410    1.1730   -0.0020 C   0  0  0  0  0  0  0  0  0  0  0  0
   -3.7330   -1.4180    0.0020 C   0  0  0  0  0  0  0  0  0  0  0  0
   -0.4020    0.3160    0.0000 C   0  0  0  0  0  0  0  0  0  0  0  0
    1.8160   -0.5200    0.0030 C   0  0  0  0  0  0  0  0  0  0  0  0
    3.9760   -1.0720    0.0000 C   0  0  0  0  0  0  0  0  0  0  0  0
    4.1550    0.2500   -0.0020 C   0  0  0  0  0  0  0  0  0  0  0  0
   -1.8620    0.0880   -0.0030 C   0  0  0  0  0  0  0  0  0  0  0  0
   -4.1030    0.9540    0.0000 C   0  0  0  0  0  0  0  0  0  0  0  0
   -4.5980   -0.3380    0.0030 C   0  0  0  0  0  0  0  0  0  0  0  0
   -2.3690   -1.2130   -0.0060 C   0  0  0  0  0  0  0  0  0  0  0  0
    0.4440   -0.7340   -0.0000 N   0  0  0  0  0  0  0  0  0  0  0  0
    2.7130   -1.4560    0.0030 N   0  0  0  0  0  0  0  0  0  0  0  0
    0.0360    1.4490    0.0030 O   0  0  0  0  0  0  0  0  0  0  0  0
    2.5680    1.0150   -0.0010 S   0  0  0  0  0  0  0  0  0  0  0  0
   -2.3550    2.1820    0.0000 H   0  0  0  0  0  0  0  0  0  0  0  0
   -4.1270   -2.4240    0.0000 H   0  0  0  0  0  0  0  0  0  0  0  0
    4.7990   -1.7720    0.0000 H   0  0  0  0  0  0  0  0  0  0  0  0
    5.1060    0.7620   -0.0040 H   0  0  0  0  0  0  0  0  0  0  0  0
   -4.7840    1.7920    0.0010 H   0  0  0  0  0  0  0  0  0  0  0  0
   -5.6660   -0.5040    0.0050 H   0  0  0  0  0  0  0  0  0  0  0  0
   -1.6950   -2.0560   -0.0060 H   0  0  0  0  0  0  0  0  0  0  0  0
    0.0940   -1.6380   -0.0030 H   0  0  0  0  0  0  0  0  0  0  0  0
  8  9  2  0  0  0  0
  2  9  1  0  0  0  0
  1  8  1  0  0  0  0
  2 10  2  0  0  0  0
  1  7  2  0  0  0  0
  7 10  1  0  0  0  0
  3  7  1  0  0  0  0
  3 13  2  0  0  0  0
  3 11  1  0  0  0  0
  4 11  1  0  0  0  0
  4 12  2  0  0  0  0
  4 14  1  0  0  0  0
  5 12  1  0  0  0  0
  6 14  1  0  0  0  0
  5  6  2  0  0  0  0
  1 15  1  0  0  0  0
  2 16  1  0  0  0  0
  5 17  1  0  0  0  0
  6 18  1  0  0  0  0
  8 19  1  0  0  0  0
  9 20  1  0  0  0  0
 10 21  1  0  0  0  0
 11 22  1  0  0  0  0
M  END
> <OPENEYE_ISO_SMILES>
c1ccc(cc1)C(=O)Nc2nccs2

> <OPENEYE_INCHI>
InChI=1S/C10H8N2OS/c13-9(8-4-2-1-3-5-8)12-10-11-6-7-14-10/h1-7H,(H,11,12,13)

> <OPENEYE_INCHIKEY>
SCQBDADQAVXTMZ-UHFFFAOYSA-N

> <FORMULA>
C10H8N2OS

$$$$
