@<TRIPOS>MOLECULE
/home/pku/3cl/gett_pdb/7S6Y/7S6Y_mol2/ligand/7S6Y_8GW.pdb
 43 46 0 0 0
SMALL
GASTEIGER

@<TRIPOS>ATOM
      1  C1       -13.7980  -10.0940  -16.5510 C.2   401  8GW401      0.2736
      2  C11       -9.8110  -17.3050  -18.3000 C.3   401  8GW401      0.1727
      3  C12       -9.9610  -16.1130  -17.3980 C.2   401  8GW401      0.2459
      4  C13       -8.2970  -14.9480  -18.8670 C.3   401  8GW401      0.0939
      5  C14       -9.4140  -13.8010  -17.0380 C.3   401  8GW401      0.1535
      6  C15      -10.8020  -13.3010  -17.2790 C.2   401  8GW401      0.2595
      7  C16       -7.6510  -13.5750  -18.7400 C.3   401  8GW401      0.0220
      8  C17      -12.8280  -12.4220  -16.4380 C.3   401  8GW401      0.1351
      9  C18       -6.9420  -13.2560  -17.4120 C.3   401  8GW401      0.0037
     10  C19      -13.8520  -13.1440  -15.5550 C.3   401  8GW401      0.0340
     11  C2       -14.8070   -8.1920  -20.8000 C.3   401  8GW401      0.0018
     12  C20      -13.9010  -14.6350  -15.8920 C.3   401  8GW401      0.0818
     13  C21      -14.6400  -14.8940  -17.2070 C.3   401  8GW401      0.0326
     14  C22      -15.5350  -16.1090  -16.9300 C.3   401  8GW401      0.1156
     15  C23       -6.5400  -14.4810  -16.5870 C.3   401  8GW401      0.0001
     16  C24      -14.6900  -15.4350  -14.8870 C.2   401  8GW401      0.2410
     17  C25       -5.8320  -12.2210  -17.6050 C.3   401  8GW401      0.0001
     18  C26      -12.1740  -18.1890  -18.1910 C.3   401  8GW401      0.0022
     19  C27       -5.0550  -19.1970  -17.1010 C.3   401  8GW401      0.0218
     20  C28       -6.1970  -21.3640  -17.5920 C.3   401  8GW401      0.0218
     21  C29       -5.8550  -20.5970  -15.2660 C.3   401  8GW401      0.0218
     22  C3       -14.5250   -8.5670  -18.3500 C.3   401  8GW401      0.1152
     23  C30      -11.0650  -17.6870  -19.0990 C.3   401  8GW401      0.0270
     24  C31      -10.7330  -18.8260  -20.0510 C.3   401  8GW401      0.0022
     25  C32      -11.5580  -16.4900  -19.9020 C.3   401  8GW401      0.0022
     26  C34       -8.3970  -12.8380  -17.6350 C.3   401  8GW401      0.0289
     27  C4       -13.8560   -8.0560  -19.6210 C.3   401  8GW401      0.0217
     28  C5       -13.6940   -9.2170  -20.5900 C.3   401  8GW401      0.0018
     29  C7        -6.1690  -20.1450  -16.6850 C.3   401  8GW401      0.0804
     30  C8       -12.6340  -10.9290  -16.1600 C.3   401  8GW401      0.2487
     31  C9        -8.0310  -18.7950  -17.7050 C.2   401  8GW401      0.3395
     32  N10       -9.2900  -18.4060  -17.5250 N.am  401  8GW401     -0.1796
     33  N13       -9.2670  -15.0420  -17.7760 N.am  401  8GW401     -0.2716
     34  N16      -11.5140  -12.9950  -16.2130 N.am  401  8GW401     -0.2027
     35  N2       -13.5330   -9.2980  -17.5880 N.am  401  8GW401     -0.2032
     36  N23      -15.5410  -16.2610  -15.4870 N.am  401  8GW401     -0.2054
     37  N8        -7.4640  -19.4670  -16.7000 N.am  401  8GW401     -0.1906
     38  O26      -14.5470  -15.3130  -13.6780 O.2   401  8GW401     -0.2734
     39  O29       -7.4630  -18.5330  -18.7620 O.2   401  8GW401     -0.2492
     40  O33      -10.6200  -16.1420  -16.3650 O.2   401  8GW401     -0.2730
     41  O38      -11.2620  -13.2100  -18.4070 O.2   401  8GW401     -0.2716
     42  O5       -14.8200  -10.1820  -15.9010 O.2   401  8GW401     -0.2705
     43  O9       -11.4720  -10.3620  -16.8070 O.3   401  8GW401     -0.2113
@<TRIPOS>BOND
     1    11    28    1
     2    11    27    1
     3    28    27    1
     4    24    23    1
     5    25    23    1
     6    27    22    1
     7    23     2    1
     8    23    18    1
     9     4     7    1
    10     4    33    1
    11    39    31    2
    12     7    26    1
    13     7     9    1
    14    41     6    2
    15    22    35    1
    16     2    32    1
    17     2     3    1
    18    33     3   am
    19    33     5    1
    20    31    32   am
    21    31    37   am
    22    26     9    1
    23    26     5    1
    24    17     9    1
    25    20    29    1
    26    35     1   am
    27     9    15    1
    28     3    40    2
    29     6     5    1
    30     6    34   am
    31    13    14    1
    32    13    12    1
    33    19    29    1
    34    14    36    1
    35    43    30    1
    36    37    29    1
    37    29    21    1
    38     1    30    1
    39     1    42    2
    40     8    34    1
    41     8    30    1
    42     8    10    1
    43    12    10    1
    44    12    16    1
    45    36    16   am
    46    16    38    2
