@<TRIPOS>MOLECULE
/home/pku/3cl/gett_pdb/6XHN/6XHN_mol2/ligand/6XHN_V3D.pdb
 33 35 0 0 0
SMALL
GASTEIGER

@<TRIPOS>ATOM
      1  C1        13.2090   21.5130   27.6920 C.3   9001  V3D9001     0.2520
      2  O2        12.9550   20.1310   27.3950 O.2   9001  V3D9001    -0.4750
      3  C3        12.0650   19.9590   26.3350 C.2   9001  V3D9001     0.1255
      4  C4        11.5530   20.9980   25.5270 C.2   9001  V3D9001     0.0331
      5  C5        10.6740   20.7280   24.4690 C.2   9001  V3D9001     0.0040
      6  C6        10.2590   19.4180   24.1960 C.2   9001  V3D9001     0.0155
      7  C7        10.7600   18.4100   25.0210 C.2   9001  V3D9001     0.0700
      8  N8        10.5350   17.0510   24.9740 N.2   9001  V3D9001    -0.2446
      9  C9        11.2330   16.4120   25.9640 C.2   9001  V3D9001     0.1323
     10  C10       11.9510   17.3640   26.6650 C.2   9001  V3D9001     0.0108
     11  C11       11.6670   18.6350   26.0690 C.3   9001  V3D9001     0.1204
     12  C12       11.1200   14.9910   26.1410 C.2   9001  V3D9001     0.2826
     13  O13       10.4210   14.3190   25.3940 O.2   9001  V3D9001    -0.2667
     14  N14       11.7900   14.4760   27.2130 N.am  9001  V3D9001    -0.1927
     15  C15       11.6930   13.0510   27.5080 C.3   9001  V3D9001     0.1731
     16  C17       12.7200   12.6240   28.5430 C.3   9001  V3D9001     0.0311
     17  C18       14.1440   12.6870   28.0210 C.3   9001  V3D9001     0.0022
     18  C19       14.4630   11.5390   27.0890 C.3   9001  V3D9001     0.0001
     19  C20       15.0960   12.6440   29.1920 C.3   9001  V3D9001     0.0001
     20  C21       10.3120   12.8060   28.0770 C.2   9001  V3D9001     0.2616
     21  O22        9.7630   13.5610   28.8730 O.2   9001  V3D9001    -0.2715
     22  N23        9.7430   11.6300   27.6160 N.am  9001  V3D9001    -0.1982
     23  C24        8.4370   11.2040   28.1100 C.3   9001  V3D9001     0.1528
     24  C26        7.4470   10.9420   26.9830 C.3   9001  V3D9001     0.0384
     25  C27        7.0410   12.2650   26.3540 C.3   9001  V3D9001     0.0821
     26  C29        6.1590   13.1250   27.3070 C.3   9001  V3D9001     0.0326
     27  C30        4.9790   13.6410   26.4860 C.3   9001  V3D9001     0.1156
     28  N31        4.9950   12.8130   25.2940 N.am  9001  V3D9001    -0.2054
     29  C32        6.1070   11.9970   25.1900 C.2   9001  V3D9001     0.2410
     30  O33        6.3460   11.2300   24.2760 O.2   9001  V3D9001    -0.2734
     31  C34        8.5410    9.9740   28.9730 C.2   9001  V3D9001     0.1707
     32  O35        7.5570    9.2990   29.2560 O.2   9001  V3D9001    -0.2943
     33  C36        9.8510    9.5980   29.5510 C.3   9001  V3D9001     0.0741
@<TRIPOS>BOND
     1     6     5    2
     2     6     7    1
     3    30    29    2
     4     5     4    1
     5     8     7    2
     6     8     9    1
     7     7    11    1
     8    29    28   am
     9    29    25    1
    10    28    27    1
    11    13    12    2
    12     4     3    2
    13     9    12    1
    14     9    10    2
    15    11     3    1
    16    11    10    1
    17    12    14   am
    18     3     2    1
    19    25    24    1
    20    25    26    1
    21    27    26    1
    22    24    23    1
    23    18    17    1
    24    14    15    1
    25     2     1    1
    26    15    20    1
    27    15    16    1
    28    22    20   am
    29    22    23    1
    30    17    16    1
    31    17    19    1
    32    20    21    2
    33    23    31    1
    34    31    32    2
    35    31    33    1
