K1Y
  -OEChem-02242320033D

 29 30  0     0  0  0  0  0  0999 V2000
    1.0120   -2.0570   -0.0860 N   0  0  0  0  0  0  0  0  0  0  0  0
    0.0040   -4.3270   -0.1440 C   0  0  0  0  0  0  0  0  0  0  0  0
    0.8030   -0.7490   -0.0390 C   0  0  0  0  0  0  0  0  0  0  0  0
    1.9120    0.2330   -0.0270 C   0  0  0  0  0  0  0  0  0  0  0  0
    3.1040   -0.0650    0.6340 C   0  0  0  0  0  0  0  0  0  0  0  0
    4.1330    0.8540    0.6410 C   0  0  0  0  0  0  0  0  0  0  0  0
    2.8090    2.3650   -0.6710 C   0  0  0  0  0  0  0  0  0  0  0  0
   -0.9750    0.9330    0.0500 N   0  0  0  0  0  0  0  0  0  0  0  0
   -4.2030    2.6080    0.1660 C   0  0  0  0  0  0  0  0  0  0  0  0
   -2.7620    2.4310    0.1330 O   0  0  0  0  0  0  0  0  0  0  0  0
   -2.3020    1.1670    0.0830 C   0  0  0  0  0  0  0  0  0  0  0  0
    1.7700    1.4570   -0.6810 C   0  0  0  0  0  0  0  0  0  0  0  0
   -0.4990   -0.3760   -0.0020 C   0  0  0  0  0  0  0  0  0  0  0  0
   -0.0270   -2.8210   -0.0930 C   0  0  0  0  0  0  0  0  0  0  0  0
    3.9850    2.0680   -0.0050 C   0  0  0  0  0  0  0  0  0  0  0  0
   -3.0830    0.2360    0.0660 O   0  0  0  0  0  0  0  0  0  0  0  0
   -1.4850   -1.8370   -0.0330 S   0  0  0  0  0  0  0  0  0  0  0  0
    0.0300   -4.7250    0.8710 H   0  0  0  0  0  0  0  0  0  0  0  0
   -0.8880   -4.6910   -0.6540 H   0  0  0  0  0  0  0  0  0  0  0  0
    0.8910   -4.6550   -0.6850 H   0  0  0  0  0  0  0  0  0  0  0  0
    3.2200   -1.0130    1.1390 H   0  0  0  0  0  0  0  0  0  0  0  0
    5.0560    0.6240    1.1520 H   0  0  0  0  0  0  0  0  0  0  0  0
    2.6990    3.3140   -1.1730 H   0  0  0  0  0  0  0  0  0  0  0  0
   -0.3510    1.6760    0.0630 H   0  0  0  0  0  0  0  0  0  0  0  0
   -4.6430    2.1720   -0.7310 H   0  0  0  0  0  0  0  0  0  0  0  0
   -4.6100    2.1130    1.0470 H   0  0  0  0  0  0  0  0  0  0  0  0
   -4.4380    3.6720    0.2050 H   0  0  0  0  0  0  0  0  0  0  0  0
    0.8530    1.6890   -1.2010 H   0  0  0  0  0  0  0  0  0  0  0  0
    4.7950    2.7820   -0.0000 H   0  0  0  0  0  0  0  0  0  0  0  0
  7 15  2  0  0  0  0
  7 12  1  0  0  0  0
  6 15  1  0  0  0  0
  4 12  2  0  0  0  0
  2 14  1  0  0  0  0
  1 14  2  0  0  0  0
  1  3  1  0  0  0  0
  5  6  2  0  0  0  0
  4  5  1  0  0  0  0
  3  4  1  0  0  0  0
 14 17  1  0  0  0  0
  3 13  2  0  0  0  0
 13 17  1  0  0  0  0
  8 13  1  0  0  0  0
  8 11  1  0  0  0  0
 11 16  2  0  0  0  0
 10 11  1  0  0  0  0
  9 10  1  0  0  0  0
  2 18  1  0  0  0  0
  2 19  1  0  0  0  0
  2 20  1  0  0  0  0
  5 21  1  0  0  0  0
  6 22  1  0  0  0  0
  7 23  1  0  0  0  0
  8 24  1  0  0  0  0
  9 25  1  0  0  0  0
  9 26  1  0  0  0  0
  9 27  1  0  0  0  0
 12 28  1  0  0  0  0
 15 29  1  0  0  0  0
M  END
> <OPENEYE_ISO_SMILES>
Cc1nc(c(s1)NC(=O)OC)c2ccccc2

> <OPENEYE_INCHI>
InChI=1S/C12H12N2O2S/c1-8-13-10(9-6-4-3-5-7-9)11(17-8)14-12(15)16-2/h3-7H,1-2H3,(H,14,15)

> <OPENEYE_INCHIKEY>
WVXKXRCDQRXTDH-UHFFFAOYSA-N

> <FORMULA>
C12H12N2O2S

$$$$
