@<TRIPOS>MOLECULE
/home/pku/3cl/gett_pdb/8CXN/8CXN_mol2/ligand/8CXN_NAG.pdb
 28 28 0 0 0
SMALL
GASTEIGER

@<TRIPOS>ATOM
      1  C1       250.0890  244.9550  199.7060 C.3   1301  NAG1301     0.1078
      2  C2       251.2090  244.1380  199.0680 C.3   1301  NAG1301     0.0801
      3  C3       250.8770  243.8400  197.6090 C.3   1301  NAG1301     0.1043
      4  C4       249.5050  243.1880  197.4990 C.3   1301  NAG1301     0.1110
      5  C5       248.4580  244.0400  198.2090 C.3   1301  NAG1301     0.1104
      6  C6       247.0940  243.3900  198.2470 C.3   1301  NAG1301     0.0729
      7  C7       253.3680  244.5910  200.1450 C.2   1301  NAG1301     0.2103
      8  C8       254.6310  245.3970  200.0970 C.3   1301  NAG1301     0.0122
      9  N2       252.4830  244.8290  199.1710 N.am  1301  NAG1301    -0.3075
     10  O3       251.8700  242.9770  197.0650 O.3   1301  NAG1301    -0.3872
     11  O4       249.1430  243.0460  196.1300 O.3   1301  NAG1301    -0.3865
     12  O5       248.8500  244.2600  199.5720 O.3   1301  NAG1301    -0.3639
     13  O6       246.1270  244.2470  198.8380 O.3   1301  NAG1301    -0.3924
     14  O7       253.1580  243.7630  201.0260 O.2   1301  NAG1301    -0.2761
     15  H1       250.2850  245.0850  200.6540 H     1301  NAG1301     0.0642
     16  H2       251.2750  243.2870  199.5420 H     1301  NAG1301     0.0551
     17  H3       250.8730  244.6760  197.1070 H     1301  NAG1301     0.0639
     18  H4       249.5360  242.3060  197.9150 H     1301  NAG1301     0.0646
     19  H5       248.3880  244.9020  197.7560 H     1301  NAG1301     0.0646
     20  H61      247.1480  242.5650  198.7660 H     1301  NAG1301     0.0584
     21  H62      246.8170  243.1770  197.3360 H     1301  NAG1301     0.0584
     22  H81      254.4140  246.3460  200.1650 H     1301  NAG1301     0.0322
     23  H82      255.0920  245.2280  199.2530 H     1301  NAG1301     0.0322
     24  H83      255.2090  245.1400  200.8410 H     1301  NAG1301     0.0322
     25  HN2      252.6890  245.4560  198.5420 H     1301  NAG1301     0.1491
     26  HO3      252.6660  243.3650  197.1290 H     1301  NAG1301     0.2100
     27  HO4      249.8460  243.2260  195.6170 H     1301  NAG1301     0.2100
     28  HO6      246.5250  244.7870  199.4190 H     1301  NAG1301     0.2095
@<TRIPOS>BOND
     1    27    11    1
     2    11     4    1
     3    10    26    1
     4    10     3    1
     5    17     3    1
     6    21     6    1
     7     4     3    1
     8     4    18    1
     9     4     5    1
    10     3     2    1
    11    19     5    1
    12     5     6    1
    13     5    12    1
    14     6    20    1
    15     6    13    1
    16    25     9    1
    17    13    28    1
    18     2     9    1
    19     2    16    1
    20     2     1    1
    21     9     7   am
    22    23     8    1
    23    12     1    1
    24     1    15    1
    25     8     7    1
    26     8    22    1
    27     8    24    1
    28     7    14    2
