I65
  -OEChem-02242320023D

 92 93  0     1  0  0  0  0  0999 V2000
    3.3730   -0.2840   -0.2220 N   0  0  0  0  0  0  0  0  0  0  0  0
   10.1550    1.9470    0.4420 C   0  0  0  0  0  0  0  0  0  0  0  0
    5.6110    0.2730   -0.5760 O   0  0  0  0  0  0  0  0  0  0  0  0
    9.9270    0.5840    0.4710 C   0  0  0  0  0  0  0  0  0  0  0  0
   -1.3780    0.6300    0.1790 C   0  0  2  0  0  0  0  0  0  0  0  0
   -2.6790   -0.0410   -0.1830 C   0  0  0  0  0  0  0  0  0  0  0  0
   -6.0760    0.1700   -0.3590 C   0  0  0  0  0  0  0  0  0  0  0  0
   -6.0110   -0.0550   -1.8700 C   0  0  0  0  0  0  0  0  0  0  0  0
   -7.1590    0.6610   -2.5350 C   0  0  0  0  0  0  0  0  0  0  0  0
   -5.0760   -1.8300    0.6070 C   0  0  0  0  0  0  0  0  0  0  0  0
   -3.9290   -2.5470    1.2720 C   0  0  0  0  0  0  0  0  0  0  0  0
   -4.3160   -4.0050    1.5250 C   0  0  0  0  0  0  0  0  0  0  0  0
    1.9030   -2.2200   -0.4940 C   0  0  2  0  0  0  0  0  0  0  0  0
    8.8170    0.0550   -0.1600 C   0  0  0  0  0  0  0  0  0  0  0  0
    1.0560   -3.5070    1.3420 C   0  0  0  0  0  0  0  0  0  0  0  0
   -0.3880   -3.1010    1.0430 C   0  0  0  0  0  0  0  0  0  0  0  0
    1.2230   -3.7300    2.8460 C   0  0  0  0  0  0  0  0  0  0  0  0
    1.3860   -4.8020    0.5950 C   0  0  0  0  0  0  0  0  0  0  0  0
   -1.4490    2.1130   -0.1900 C   0  0  0  0  0  0  0  0  0  0  0  0
   -2.4950    2.8070    0.6850 C   0  0  0  0  0  0  0  0  0  0  0  0
   -2.6970    4.2430    0.1970 C   0  0  0  0  0  0  0  0  0  0  0  0
   -3.7430    4.9370    1.0720 C   0  0  0  0  0  0  0  0  0  0  0  0
   -3.2610    4.9550    2.5250 C   0  0  0  0  0  0  0  0  0  0  0  0
   -3.0590    3.5190    3.0130 C   0  0  0  0  0  0  0  0  0  0  0  0
    7.9340    0.8890   -0.8200 C   0  0  0  0  0  0  0  0  0  0  0  0
   -2.0130    2.8250    2.1370 C   0  0  0  0  0  0  0  0  0  0  0  0
    8.1620    2.2520   -0.8490 C   0  0  0  0  0  0  0  0  0  0  0  0
    9.2730    2.7810   -0.2190 C   0  0  0  0  0  0  0  0  0  0  0  0
    6.7240    0.3120   -1.5070 C   0  0  0  0  0  0  0  0  0  0  0  0
    3.0340   -2.9900   -1.1800 C   0  0  0  0  0  0  0  0  0  0  0  0
    4.4450   -0.2200   -1.0360 C   0  0  0  0  0  0  0  0  0  0  0  0
    2.0780   -0.7220   -0.7500 C   0  0  1  0  0  0  0  0  0  0  0  0
    0.9730    0.0370   -0.0630 C   0  0  0  0  0  0  0  0  0  0  0  0
   -0.2810   -0.0040   -0.5560 N   0  0  0  0  0  0  0  0  0  0  0  0
   -3.7760    0.1630    0.5730 N   0  0  0  0  0  0  0  0  0  0  0  0
   -4.9610   -0.5260    0.2870 N   0  0  0  0  0  0  0  0  0  0  0  0
   -7.3050    0.6030   -3.8730 N   0  0  0  0  0  0  0  0  0  0  0  0
    4.3600   -0.6050   -2.1850 O   0  0  0  0  0  0  0  0  0  0  0  0
    1.2110    0.6850    0.9340 O   0  0  0  0  0  0  0  0  0  0  0  0
   -2.7380   -0.7640   -1.1550 O   0  0  0  0  0  0  0  0  0  0  0  0
   -7.9500    1.2900   -1.8650 O   0  0  0  0  0  0  0  0  0  0  0  0
   -6.1020   -2.4270    0.3600 O   0  0  0  0  0  0  0  0  0  0  0  0
    1.9410   -2.4710    0.9120 O   0  0  0  0  0  0  0  0  0  0  0  0
    3.4590   -0.0450    0.7140 H   0  0  0  0  0  0  0  0  0  0  0  0
   11.0210    2.3610    0.9380 H   0  0  0  0  0  0  0  0  0  0  0  0
   10.6170   -0.0680    0.9870 H   0  0  0  0  0  0  0  0  0  0  0  0
   -1.2040    0.5300    1.2500 H   0  0  0  0  0  0  0  0  0  0  0  0
   -6.0100    1.2380   -0.1470 H   0  0  0  0  0  0  0  0  0  0  0  0
   -7.0190   -0.2180    0.0270 H   0  0  0  0  0  0  0  0  0  0  0  0
   -5.0690    0.3330   -2.2560 H   0  0  0  0  0  0  0  0  0  0  0  0
   -6.0780   -1.1220   -2.0820 H   0  0  0  0  0  0  0  0  0  0  0  0
   -3.0530   -2.5110    0.6230 H   0  0  0  0  0  0  0  0  0  0  0  0
   -3.6980   -2.0620    2.2210 H   0  0  0  0  0  0  0  0  0  0  0  0
   -5.1910   -4.0410    2.1730 H   0  0  0  0  0  0  0  0  0  0  0  0
   -4.5460   -4.4900    0.5760 H   0  0  0  0  0  0  0  0  0  0  0  0
   -3.4860   -4.5230    2.0050 H   0  0  0  0  0  0  0  0  0  0  0  0
    0.9450   -2.5480   -0.8960 H   0  0  0  0  0  0  0  0  0  0  0  0
    8.6400   -1.0100   -0.1370 H   0  0  0  0  0  0  0  0  0  0  0  0
   -1.0680   -3.8430    1.4620 H   0  0  0  0  0  0  0  0  0  0  0  0
   -0.5920   -2.1280    1.4910 H   0  0  0  0  0  0  0  0  0  0  0  0
   -0.5340   -3.0430   -0.0350 H   0  0  0  0  0  0  0  0  0  0  0  0
    2.2530   -4.0190    3.0590 H   0  0  0  0  0  0  0  0  0  0  0  0
    0.9880   -2.8080    3.3780 H   0  0  0  0  0  0  0  0  0  0  0  0
    0.5480   -4.5200    3.1740 H   0  0  0  0  0  0  0  0  0  0  0  0
    1.2500   -4.6490   -0.4750 H   0  0  0  0  0  0  0  0  0  0  0  0
    2.4210   -5.0820    0.7940 H   0  0  0  0  0  0  0  0  0  0  0  0
    0.7230   -5.5970    0.9360 H   0  0  0  0  0  0  0  0  0  0  0  0
   -0.4750    2.5750   -0.0280 H   0  0  0  0  0  0  0  0  0  0  0  0
   -1.7290    2.2140   -1.2390 H   0  0  0  0  0  0  0  0  0  0  0  0
   -3.4390    2.2650    0.6220 H   0  0  0  0  0  0  0  0  0  0  0  0
   -1.7530    4.7840    0.2600 H   0  0  0  0  0  0  0  0  0  0  0  0
   -3.0400    4.2300   -0.8370 H   0  0  0  0  0  0  0  0  0  0  0  0
   -3.8870    5.9590    0.7250 H   0  0  0  0  0  0  0  0  0  0  0  0
   -4.6870    4.3950    1.0090 H   0  0  0  0  0  0  0  0  0  0  0  0
   -2.3170    5.4960    2.5880 H   0  0  0  0  0  0  0  0  0  0  0  0
   -4.0060    5.4490    3.1480 H   0  0  0  0  0  0  0  0  0  0  0  0
   -2.7160    3.5320    4.0470 H   0  0  0  0  0  0  0  0  0  0  0  0
   -4.0030    2.9770    2.9500 H   0  0  0  0  0  0  0  0  0  0  0  0
   -1.8700    1.8020    2.4850 H   0  0  0  0  0  0  0  0  0  0  0  0
   -1.0700    3.3660    2.2010 H   0  0  0  0  0  0  0  0  0  0  0  0
    7.4720    2.9040   -1.3650 H   0  0  0  0  0  0  0  0  0  0  0  0
    9.4480    3.8470   -0.2380 H   0  0  0  0  0  0  0  0  0  0  0  0
    6.9470   -0.6980   -1.8500 H   0  0  0  0  0  0  0  0  0  0  0  0
    6.4600    0.9350   -2.3620 H   0  0  0  0  0  0  0  0  0  0  0  0
    3.9850   -2.7320   -0.7130 H   0  0  0  0  0  0  0  0  0  0  0  0
    2.8580   -4.0610   -1.0790 H   0  0  0  0  0  0  0  0  0  0  0  0
    3.0650   -2.7260   -2.2370 H   0  0  0  0  0  0  0  0  0  0  0  0
    2.0390   -0.5300   -1.8220 H   0  0  0  0  0  0  0  0  0  0  0  0
   -0.4560   -0.4540   -1.3970 H   0  0  0  0  0  0  0  0  0  0  0  0
   -3.7440    0.7880    1.3140 H   0  0  0  0  0  0  0  0  0  0  0  0
   -6.6720    0.1000   -4.4090 H   0  0  0  0  0  0  0  0  0  0  0  0
   -8.0430    1.0640   -4.3010 H   0  0  0  0  0  0  0  0  0  0  0  0
 15 17  1  0  0  0  0
  2  4  2  0  0  0  0
  4 14  1  0  0  0  0
  2 28  1  0  0  0  0
 14 25  2  0  0  0  0
 15 43  1  0  0  0  0
 13 43  1  0  0  0  0
 13 30  1  0  0  0  0
 15 18  1  0  0  0  0
 15 16  1  0  0  0  0
 24 26  1  0  0  0  0
 23 24  1  0  0  0  0
 20 26  1  0  0  0  0
 31 38  2  0  0  0  0
 27 28  2  0  0  0  0
 13 32  1  0  0  0  0
 19 20  1  0  0  0  0
 20 21  1  0  0  0  0
  5 19  1  0  0  0  0
 32 33  1  0  0  0  0
  1 32  1  0  0  0  0
 33 34  1  0  0  0  0
  5 34  1  0  0  0  0
  6 40  2  0  0  0  0
 25 27  1  0  0  0  0
 25 29  1  0  0  0  0
  1 31  1  0  0  0  0
  3 31  1  0  0  0  0
 22 23  1  0  0  0  0
 33 39  2  0  0  0  0
  5  6  1  0  0  0  0
  6 35  1  0  0  0  0
  3 29  1  0  0  0  0
 21 22  1  0  0  0  0
 11 12  1  0  0  0  0
 10 11  1  0  0  0  0
 10 42  2  0  0  0  0
 10 36  1  0  0  0  0
 35 36  1  0  0  0  0
  7  8  1  0  0  0  0
  8  9  1  0  0  0  0
  7 36  1  0  0  0  0
  9 37  1  0  0  0  0
  9 41  2  0  0  0  0
  1 44  1  0  0  0  0
  2 45  1  0  0  0  0
  4 46  1  0  0  0  0
  5 47  1  0  0  0  0
  7 48  1  0  0  0  0
  7 49  1  0  0  0  0
  8 50  1  0  0  0  0
  8 51  1  0  0  0  0
 11 52  1  0  0  0  0
 11 53  1  0  0  0  0
 12 54  1  0  0  0  0
 12 55  1  0  0  0  0
 12 56  1  0  0  0  0
 13 57  1  0  0  0  0
 14 58  1  0  0  0  0
 16 59  1  0  0  0  0
 16 60  1  0  0  0  0
 16 61  1  0  0  0  0
 17 62  1  0  0  0  0
 17 63  1  0  0  0  0
 17 64  1  0  0  0  0
 18 65  1  0  0  0  0
 18 66  1  0  0  0  0
 18 67  1  0  0  0  0
 19 68  1  0  0  0  0
 19 69  1  0  0  0  0
 20 70  1  0  0  0  0
 21 71  1  0  0  0  0
 21 72  1  0  0  0  0
 22 73  1  0  0  0  0
 22 74  1  0  0  0  0
 23 75  1  0  0  0  0
 23 76  1  0  0  0  0
 24 77  1  0  0  0  0
 24 78  1  0  0  0  0
 26 79  1  0  0  0  0
 26 80  1  0  0  0  0
 27 81  1  0  0  0  0
 28 82  1  0  0  0  0
 29 83  1  0  0  0  0
 29 84  1  0  0  0  0
 30 85  1  0  0  0  0
 30 86  1  0  0  0  0
 30 87  1  0  0  0  0
 32 88  1  0  0  0  0
 34 89  1  0  0  0  0
 35 90  1  0  0  0  0
 37 91  1  0  0  0  0
 37 92  1  0  0  0  0
M  END
> <OPENEYE_ISO_SMILES>
CCC(=O)N(CCC(=O)N)NC(=O)[C@H](CC1CCCCC1)NC(=O)[C@H]([C@@H](C)OC(C)(C)C)NC(=O)OCc2ccccc2

> <OPENEYE_INCHI>
InChI=1S/C31H49N5O7/c1-6-26(38)36(18-17-25(32)37)35-28(39)24(19-22-13-9-7-10-14-22)33-29(40)27(21(2)43-31(3,4)5)34-30(41)42-20-23-15-11-8-12-16-23/h8,11-12,15-16,21-22,24,27H,6-7,9-10,13-14,17-20H2,1-5H3,(H2,32,37)(H,33,40)(H,34,41)(H,35,39)/t21-,24+,27+/m1/s1

> <OPENEYE_INCHIKEY>
OLDUWPOLRQOLGJ-QURRFSBHSA-N

> <FORMULA>
C31H49N5O7

$$$$
