K34
  -OEChem-02242320033D

 14 15  0     0  0  0  0  0  0999 V2000
   -1.7030   -1.0420    0.0020 N   0  0  0  0  0  0  0  0  0  0  0  0
   -1.8300    1.1140    0.0020 N   0  0  0  0  0  0  0  0  0  0  0  0
   -3.0770    0.6530   -0.0010 C   0  0  0  0  0  0  0  0  0  0  0  0
    1.1710    1.3160    0.0000 N   0  0  0  0  0  0  0  0  0  0  0  0
    2.4780    1.2130   -0.0010 C   0  0  0  0  0  0  0  0  0  0  0  0
    2.9660   -0.0340   -0.0010 C   0  0  0  0  0  0  0  0  0  0  0  0
    0.4890    0.2050    0.0010 C   0  0  0  0  0  0  0  0  0  0  0  0
   -0.9810    0.1040    0.0010 C   0  0  0  0  0  0  0  0  0  0  0  0
   -3.0530   -0.6550   -0.0030 N   0  0  0  0  0  0  0  0  0  0  0  0
    1.6070   -1.1570    0.0000 S   0  0  0  0  0  0  0  0  0  0  0  0
   -1.3570   -1.9480    0.0020 H   0  0  0  0  0  0  0  0  0  0  0  0
   -3.9690    1.2620   -0.0010 H   0  0  0  0  0  0  0  0  0  0  0  0
    3.1220    2.0810   -0.0020 H   0  0  0  0  0  0  0  0  0  0  0  0
    4.0110   -0.3050   -0.0020 H   0  0  0  0  0  0  0  0  0  0  0  0
  4  5  1  0  0  0  0
  5  6  2  0  0  0  0
  4  7  2  0  0  0  0
  2  3  1  0  0  0  0
  2  8  2  0  0  0  0
  6 10  1  0  0  0  0
  7  8  1  0  0  0  0
  7 10  1  0  0  0  0
  3  9  2  0  0  0  0
  1  8  1  0  0  0  0
  1  9  1  0  0  0  0
  1 11  1  0  0  0  0
  3 12  1  0  0  0  0
  5 13  1  0  0  0  0
  6 14  1  0  0  0  0
M  END
> <OPENEYE_ISO_SMILES>
c1csc(n1)c2[nH]ncn2

> <OPENEYE_INCHI>
InChI=1S/C5H4N4S/c1-2-10-5(6-1)4-7-3-8-9-4/h1-3H,(H,7,8,9)

> <OPENEYE_INCHIKEY>
WFEGFRJBAYCOHP-UHFFFAOYSA-N

> <FORMULA>
C5H4N4S

$$$$
