OEI
  -OEChem-02242320033D

 24 24  0     0  0  0  0  0  0999 V2000
    3.0100    0.8040   -0.8470 C   0  0  0  0  0  0  0  0  0  0  0  0
   -3.7280    0.2370   -0.4920 C   0  0  0  0  0  0  0  0  0  0  0  0
   -2.6680    0.6570    0.5270 C   0  0  0  0  0  0  0  0  0  0  0  0
   -0.2900    0.6770    0.9840 C   0  0  0  0  0  0  0  0  0  0  0  0
    1.0590    0.2820    0.4400 C   0  0  0  0  0  0  0  0  0  0  0  0
    1.5830   -0.9650    0.7280 C   0  0  0  0  0  0  0  0  0  0  0  0
    2.8260   -1.3220    0.2390 C   0  0  0  0  0  0  0  0  0  0  0  0
    3.5360   -0.4400   -0.5530 C   0  0  0  0  0  0  0  0  0  0  0  0
    1.7720    1.1660   -0.3480 C   0  0  0  0  0  0  0  0  0  0  0  0
   -1.3360    0.2870    0.0290 N   0  0  0  0  0  0  0  0  0  0  0  0
   -3.7470   -1.1880   -0.5990 O   0  0  0  0  0  0  0  0  0  0  0  0
    3.5670    1.4950   -1.4620 H   0  0  0  0  0  0  0  0  0  0  0  0
   -4.7070    0.5890   -0.1650 H   0  0  0  0  0  0  0  0  0  0  0  0
   -3.4920    0.6710   -1.4630 H   0  0  0  0  0  0  0  0  0  0  0  0
   -2.7130    1.7360    0.6750 H   0  0  0  0  0  0  0  0  0  0  0  0
   -2.8540    0.1520    1.4750 H   0  0  0  0  0  0  0  0  0  0  0  0
   -0.4600    0.1720    1.9350 H   0  0  0  0  0  0  0  0  0  0  0  0
   -0.3190    1.7560    1.1350 H   0  0  0  0  0  0  0  0  0  0  0  0
    1.0250   -1.6560    1.3430 H   0  0  0  0  0  0  0  0  0  0  0  0
    3.2370   -2.2940    0.4680 H   0  0  0  0  0  0  0  0  0  0  0  0
    4.5030   -0.7230   -0.9430 H   0  0  0  0  0  0  0  0  0  0  0  0
    1.3630    2.1400   -0.5730 H   0  0  0  0  0  0  0  0  0  0  0  0
   -1.2880   -0.6990   -0.1770 H   0  0  0  0  0  0  0  0  0  0  0  0
   -4.3980   -1.5270   -1.2290 H   0  0  0  0  0  0  0  0  0  0  0  0
  7  8  2  0  0  0  0
  6  7  1  0  0  0  0
  1  8  1  0  0  0  0
  5  6  2  0  0  0  0
  1  9  2  0  0  0  0
  3 10  1  0  0  0  0
  4 10  1  0  0  0  0
  5  9  1  0  0  0  0
  4  5  1  0  0  0  0
  2  3  1  0  0  0  0
  2 11  1  0  0  0  0
  1 12  1  0  0  0  0
  2 13  1  0  0  0  0
  2 14  1  0  0  0  0
  3 15  1  0  0  0  0
  3 16  1  0  0  0  0
  4 17  1  0  0  0  0
  4 18  1  0  0  0  0
  6 19  1  0  0  0  0
  7 20  1  0  0  0  0
  8 21  1  0  0  0  0
  9 22  1  0  0  0  0
 10 23  1  0  0  0  0
 11 24  1  0  0  0  0
M  END
> <OPENEYE_ISO_SMILES>
c1ccc(cc1)CNCCO

> <OPENEYE_INCHI>
InChI=1S/C9H13NO/c11-7-6-10-8-9-4-2-1-3-5-9/h1-5,10-11H,6-8H2

> <OPENEYE_INCHIKEY>
XNIOWJUQPMKCIJ-UHFFFAOYSA-N

> <FORMULA>
C9H13NO

$$$$
