ALC
  -OEChem-02242320013D

 29 29  0     1  0  0  0  0  0999 V2000
    0.0180    1.7630    1.4240 N   0  0  0  0  0  0  0  0  0  0  0  0
   -0.3050    0.3310    1.4600 C   0  0  2  0  0  0  0  0  0  0  0  0
   -0.0810   -0.1990    2.8530 C   0  0  0  0  0  0  0  0  0  0  0  0
    0.7620    0.2970    3.5600 O   0  0  0  0  0  0  0  0  0  0  0  0
    0.5950   -0.4190    0.4770 C   0  0  0  0  0  0  0  0  0  0  0  0
    0.3680    0.1180   -0.9360 C   0  0  0  0  0  0  0  0  0  0  0  0
    1.2690   -0.6320   -1.9180 C   0  0  0  0  0  0  0  0  0  0  0  0
    1.0420   -0.0930   -3.3320 C   0  0  0  0  0  0  0  0  0  0  0  0
   -0.4220   -0.2950   -3.7260 C   0  0  0  0  0  0  0  0  0  0  0  0
   -1.3220    0.4550   -2.7430 C   0  0  0  0  0  0  0  0  0  0  0  0
   -1.0950   -0.0830   -1.3290 C   0  0  0  0  0  0  0  0  0  0  0  0
   -0.8190   -1.2240    3.3070 O   0  0  0  0  0  0  0  0  0  0  0  0
    0.9880    1.8480    1.6890 H   0  0  0  0  0  0  0  0  0  0  0  0
   -0.0440    2.0500    0.4590 H   0  0  0  0  0  0  0  0  0  0  0  0
   -1.3480    0.1860    1.1800 H   0  0  0  0  0  0  0  0  0  0  0  0
    1.6390   -0.2750    0.7580 H   0  0  0  0  0  0  0  0  0  0  0  0
    0.3560   -1.4820    0.5040 H   0  0  0  0  0  0  0  0  0  0  0  0
    0.6080    1.1810   -0.9620 H   0  0  0  0  0  0  0  0  0  0  0  0
    2.3120   -0.4870   -1.6380 H   0  0  0  0  0  0  0  0  0  0  0  0
    1.0290   -1.6950   -1.8920 H   0  0  0  0  0  0  0  0  0  0  0  0
    1.2820    0.9690   -3.3590 H   0  0  0  0  0  0  0  0  0  0  0  0
    1.6840   -0.6280   -4.0320 H   0  0  0  0  0  0  0  0  0  0  0  0
   -0.5830    0.0880   -4.7330 H   0  0  0  0  0  0  0  0  0  0  0  0
   -0.6610   -1.3580   -3.6990 H   0  0  0  0  0  0  0  0  0  0  0  0
   -1.0830    1.5180   -2.7700 H   0  0  0  0  0  0  0  0  0  0  0  0
   -2.3660    0.3110   -3.0240 H   0  0  0  0  0  0  0  0  0  0  0  0
   -1.3350   -1.1460   -1.3030 H   0  0  0  0  0  0  0  0  0  0  0  0
   -1.7370    0.4510   -0.6290 H   0  0  0  0  0  0  0  0  0  0  0  0
   -0.6760   -1.5640    4.2010 H   0  0  0  0  0  0  0  0  0  0  0  0
  1  2  1  0  0  0  0
  1 13  1  0  0  0  0
  1 14  1  0  0  0  0
  2  3  1  0  0  0  0
  2  5  1  0  0  0  0
  2 15  1  0  0  0  0
  3  4  2  0  0  0  0
  3 12  1  0  0  0  0
  5  6  1  0  0  0  0
  5 16  1  0  0  0  0
  5 17  1  0  0  0  0
  6  7  1  0  0  0  0
  6 11  1  0  0  0  0
  6 18  1  0  0  0  0
  7  8  1  0  0  0  0
  7 19  1  0  0  0  0
  7 20  1  0  0  0  0
  8  9  1  0  0  0  0
  8 21  1  0  0  0  0
  8 22  1  0  0  0  0
  9 10  1  0  0  0  0
  9 23  1  0  0  0  0
  9 24  1  0  0  0  0
 10 11  1  0  0  0  0
 10 25  1  0  0  0  0
 10 26  1  0  0  0  0
 11 27  1  0  0  0  0
 11 28  1  0  0  0  0
 12 29  1  0  0  0  0
M  END
> <OPENEYE_ISO_SMILES>
C1CCC(CC1)C[C@@H](C(=O)O)N

> <OPENEYE_INCHI>
InChI=1S/C9H17NO2/c10-8(9(11)12)6-7-4-2-1-3-5-7/h7-8H,1-6,10H2,(H,11,12)/t8-/m0/s1

> <OPENEYE_INCHIKEY>
ORQXBVXKBGUSBA-QMMMGPOBSA-N

> <FORMULA>
C9H17NO2

$$$$
