CSO
  -OEChem-02242320023D

 15 14  0     1  0  0  0  0  0999 V2000
    0.0710    1.4320    0.5590 N   0  0  0  0  0  0  0  0  0  0  0  0
    0.5160    0.0350    0.4810 C   0  0  1  0  0  0  0  0  0  0  0  0
   -0.3720   -0.7300   -0.5020 C   0  0  0  0  0  0  0  0  0  0  0  0
   -2.0930   -0.6740    0.0680 S   0  0  0  0  0  0  0  0  0  0  0  0
    1.9460   -0.0120    0.0080 C   0  0  0  0  0  0  0  0  0  0  0  0
    2.4200    0.9340   -0.5760 O   0  0  0  0  0  0  0  0  0  0  0  0
    2.6930   -1.1040    0.2340 O   0  0  0  0  0  0  0  0  0  0  0  0
   -2.5190    0.7480   -0.2670 O   0  0  0  0  0  0  0  0  0  0  0  0
    0.1270    1.8800   -0.3440 H   0  0  0  0  0  0  0  0  0  0  0  0
   -0.8630    1.4940    0.9350 H   0  0  0  0  0  0  0  0  0  0  0  0
    0.4450   -0.4240    1.4670 H   0  0  0  0  0  0  0  0  0  0  0  0
   -0.3010   -0.2710   -1.4880 H   0  0  0  0  0  0  0  0  0  0  0  0
   -0.0420   -1.7670   -0.5600 H   0  0  0  0  0  0  0  0  0  0  0  0
    3.6040   -1.0870   -0.0890 H   0  0  0  0  0  0  0  0  0  0  0  0
   -3.4320    0.9530   -0.0240 H   0  0  0  0  0  0  0  0  0  0  0  0
  1  2  1  0  0  0  0
  1  9  1  0  0  0  0
  1 10  1  0  0  0  0
  2  3  1  0  0  0  0
  2  5  1  0  0  0  0
  2 11  1  0  0  0  0
  3  4  1  0  0  0  0
  3 12  1  0  0  0  0
  3 13  1  0  0  0  0
  4  8  1  0  0  0  0
  5  6  2  0  0  0  0
  5  7  1  0  0  0  0
  7 14  1  0  0  0  0
  8 15  1  0  0  0  0
M  END
> <OPENEYE_ISO_SMILES>
C([C@@H](C(=O)O)N)SO

> <OPENEYE_INCHI>
InChI=1S/C3H7NO3S/c4-2(1-8-7)3(5)6/h2,7H,1,4H2,(H,5,6)/t2-/m0/s1

> <OPENEYE_INCHIKEY>
FXIRVRPOOYSARH-REOHCLBHSA-N

> <FORMULA>
C3H7NO3S

$$$$
