YOP
  -OEChem-02242320043D

 24 24  0     1  0  0  0  0  0999 V2000
    1.7060   -0.0540   -0.0830 C   0  0  1  0  0  0  0  0  0  0  0  0
    0.6970    0.0300    1.0650 C   0  0  0  0  0  0  0  0  0  0  0  0
    3.1120    0.2220    0.4530 C   0  0  0  0  0  0  0  0  0  0  0  0
   -0.6990   -0.1200    0.5180 C   0  0  0  0  0  0  0  0  0  0  0  0
   -1.3080   -1.3410    0.5080 C   0  0  0  0  0  0  0  0  0  0  0  0
   -2.6080   -1.4540   -0.0050 C   0  0  0  0  0  0  0  0  0  0  0  0
   -3.2430   -0.3590   -0.4840 C   0  0  0  0  0  0  0  0  0  0  0  0
   -1.3900    0.9970    0.0190 C   0  0  0  0  0  0  0  0  0  0  0  0
    1.6630   -1.3980   -0.6750 N   0  0  0  0  0  0  0  0  0  0  0  0
   -2.6360    0.8550   -0.4730 N   0  0  0  0  0  0  0  0  0  0  0  0
   -0.8570    2.0950    0.0220 O   0  0  0  0  0  0  0  0  0  0  0  0
    4.0380    0.2580   -0.6350 O   0  0  0  0  0  0  0  0  0  0  0  0
    1.4540    0.6860   -0.8420 H   0  0  0  0  0  0  0  0  0  0  0  0
    0.8940   -0.7670    1.7810 H   0  0  0  0  0  0  0  0  0  0  0  0
    0.7910    0.9960    1.5610 H   0  0  0  0  0  0  0  0  0  0  0  0
    3.1220    1.1810    0.9710 H   0  0  0  0  0  0  0  0  0  0  0  0
    3.3980   -0.5680    1.1470 H   0  0  0  0  0  0  0  0  0  0  0  0
   -0.7940   -2.2100    0.8910 H   0  0  0  0  0  0  0  0  0  0  0  0
   -3.1010   -2.4150   -0.0200 H   0  0  0  0  0  0  0  0  0  0  0  0
   -4.2440   -0.4520   -0.8780 H   0  0  0  0  0  0  0  0  0  0  0  0
    2.2730   -1.4600   -1.4760 H   0  0  0  0  0  0  0  0  0  0  0  0
    4.9510    0.4300   -0.3680 H   0  0  0  0  0  0  0  0  0  0  0  0
    1.8920   -2.1020    0.0100 H   0  0  0  0  0  0  0  0  0  0  0  0
   -3.1070    1.6300   -0.8160 H   0  0  0  0  0  0  0  0  0  0  0  0
  8 11  2  0  0  0  0
  8 10  1  0  0  0  0
  4  8  1  0  0  0  0
  2  4  1  0  0  0  0
  1  2  1  0  0  0  0
  7 10  1  0  0  0  0
  4  5  2  0  0  0  0
  3 12  1  0  0  0  0
  1  3  1  0  0  0  0
  1  9  1  0  0  0  0
  6  7  2  0  0  0  0
  5  6  1  0  0  0  0
  1 13  1  0  0  0  0
  2 14  1  0  0  0  0
  2 15  1  0  0  0  0
  3 16  1  0  0  0  0
  3 17  1  0  0  0  0
  5 18  1  0  0  0  0
  6 19  1  0  0  0  0
  7 20  1  0  0  0  0
  9 21  1  0  0  0  0
 12 22  1  0  0  0  0
  9 23  1  0  0  0  0
 10 24  1  0  0  0  0
M  END
> <OPENEYE_ISO_SMILES>
c1cc(c(=O)[nH]c1)C[C@@H](CO)N

> <OPENEYE_INCHI>
InChI=1S/C8H12N2O2/c9-7(5-11)4-6-2-1-3-10-8(6)12/h1-3,7,11H,4-5,9H2,(H,10,12)/t7-/m0/s1

> <OPENEYE_INCHIKEY>
QZSOIZRKOUQRHW-ZETCQYMHSA-N

> <FORMULA>
C8H12N2O2

$$$$
