@<TRIPOS>MOLECULE
/home/pku/3cl/gett_pdb/7JZ0/7JZ0_mol2/ligand/7JZ0_M7G.pdb
 29 31 0 0 0
SMALL
GASTEIGER

@<TRIPOS>ATOM
      1  PA        83.4470   22.8490   13.8540 P.3     0  M7G0        0.2231
      2  O1A       84.9300   22.8060   13.9540 O.3     0  M7G0       -0.4370
      3  O2A       82.7620   21.7040   13.1930 O.2     0  M7G0       -0.5169
      4  O3A       83.0670   24.2340   13.1090 O.3     0  M7G0       -0.2261
      5  O5'       82.7940   23.1460   15.3000 O.3     0  M7G0       -0.3111
      6  PB        81.7410   25.1310   12.7640 P.3     0  M7G0        0.5373
      7  O1B       80.7610   24.9520   13.9000 O.3     0  M7G0       -0.1143
      8  O2B       82.2150   26.5570   12.6190 O.3     0  M7G0       -0.1143
      9  O3B       81.1940   24.5060   11.3930 O.2     0  M7G0       -0.2221
     10  C5'       82.3340   22.1120   16.2190 C.3     0  M7G0        0.1813
     11  C4'       81.4850   22.7410   17.3020 C.3     0  M7G0        0.1799
     12  O4'       82.2180   23.8250   17.9330 O.3     0  M7G0       -0.3326
     13  C3'       80.1760   23.3960   16.8350 C.3     0  M7G0        0.2158
     14  O3'       79.1440   22.4340   16.6510 O.3     0  M7G0       -0.2175
     15  C2'       79.9070   24.4130   17.9380 C.3     0  M7G0        0.2310
     16  O2'       79.3100   23.8390   19.0840 O.3     0  M7G0       -0.2158
     17  C1'       81.3220   24.8590   18.3150 C.3     0  M7G0        0.2283
     18  N9        81.7320   26.1240   17.6840 N.pl3   0  M7G0       -0.2503
     19  C8        82.6330   26.2110   16.5290 C.3     0  M7G0        0.1917
     20  N7        82.7520   27.6550   16.3390 N.pl3   0  M7G0       -0.2828
     21  CM7       83.5700   28.2570   15.3010 C.3     0  M7G0        0.1140
     22  C5        81.9930   28.3370   17.2960 C.ar    0  M7G0        0.1399
     23  C6        81.8260   29.7180   17.5150 C.ar    0  M7G0        0.2978
     24  O6        82.3110   30.6570   16.8840 O.2     0  M7G0       -0.2636
     25  N1        80.9720   29.9410   18.5990 N.ar    0  M7G0       -0.1712
     26  C2        80.3770   28.9690   19.3640 C.ar    0  M7G0        0.2604
     27  N2        79.5930   29.3840   20.3630 N.pl3   0  M7G0       -0.0859
     28  N3        80.5490   27.6720   19.1560 N.ar    0  M7G0       -0.1946
     29  C4        81.3710   27.3900   18.1180 C.ar    0  M7G0        0.1558
@<TRIPOS>BOND
     1     9     6    2
     2     8     6    1
     3     6     4    1
     4     6     7    1
     5     4     1    1
     6     3     1    2
     7     1     2    1
     8     1     5    1
     9     5    10    1
    10    21    20    1
    11    10    11    1
    12    20    19    1
    13    20    22    1
    14    19    18    1
    15    14    13    1
    16    13    11    1
    17    13    15    1
    18    24    23    2
    19    22    23   ar
    20    22    29   ar
    21    11    12    1
    22    23    25   ar
    23    18    29    1
    24    18    17    1
    25    12    17    1
    26    15    17    1
    27    15    16    1
    28    29    28   ar
    29    25    26   ar
    30    28    26   ar
    31    26    27    1
