BDF
  -OEChem-02242320023D

 24 24  0     1  0  0  0  0  0999 V2000
    0.4420    0.7330    2.1910 C   0  0  0  0  0  0  0  0  0  0  0  0
    0.0310   -0.0520    0.9440 C   0  0  1  0  0  0  0  0  0  0  0  0
    0.9100    0.3690   -0.2340 C   0  0  2  0  0  0  0  0  0  0  0  0
    0.5150   -0.4480   -1.4690 C   0  0  1  0  0  0  0  0  0  0  0  0
   -0.9930   -0.2950   -1.6940 C   0  0  1  0  0  0  0  0  0  0  0  0
   -1.7300   -0.6650   -0.4050 C   0  0  0  0  0  0  0  0  0  0  0  0
   -0.3760    0.3380    3.2940 O   0  0  0  0  0  0  0  0  0  0  0  0
    0.1990   -1.4500    1.1870 O   0  0  0  0  0  0  0  0  0  0  0  0
    2.2820    0.1240    0.0800 O   0  0  0  0  0  0  0  0  0  0  0  0
    1.2210    0.0330   -2.6140 O   0  0  0  0  0  0  0  0  0  0  0  0
   -1.2920    1.0570   -2.0440 O   0  0  0  0  0  0  0  0  0  0  0  0
   -1.3370    0.2150    0.6450 O   0  0  0  0  0  0  0  0  0  0  0  0
    0.3140    1.8000    2.0070 H   0  0  0  0  0  0  0  0  0  0  0  0
    1.4870    0.5270    2.4220 H   0  0  0  0  0  0  0  0  0  0  0  0
    0.7660    1.4300   -0.4380 H   0  0  0  0  0  0  0  0  0  0  0  0
    0.7550   -1.4990   -1.3060 H   0  0  0  0  0  0  0  0  0  0  0  0
   -1.3110   -0.9590   -2.4990 H   0  0  0  0  0  0  0  0  0  0  0  0
   -1.4840   -1.6900   -0.1280 H   0  0  0  0  0  0  0  0  0  0  0  0
   -2.8050   -0.5820   -0.5650 H   0  0  0  0  0  0  0  0  0  0  0  0
   -0.0850    0.8550    4.0570 H   0  0  0  0  0  0  0  0  0  0  0  0
   -0.3680   -1.6740    1.9360 H   0  0  0  0  0  0  0  0  0  0  0  0
    2.7990    0.3960   -0.6900 H   0  0  0  0  0  0  0  0  0  0  0  0
    0.9320   -0.5000   -3.3660 H   0  0  0  0  0  0  0  0  0  0  0  0
   -2.2490    1.1080   -2.1700 H   0  0  0  0  0  0  0  0  0  0  0  0
  1  2  1  0  0  0  0
  1  7  1  0  0  0  0
  1 13  1  0  0  0  0
  1 14  1  0  0  0  0
  2  3  1  0  0  0  0
  2  8  1  0  0  0  0
  2 12  1  0  0  0  0
  3  4  1  0  0  0  0
  3  9  1  0  0  0  0
  3 15  1  0  0  0  0
  4  5  1  0  0  0  0
  4 10  1  0  0  0  0
  4 16  1  0  0  0  0
  5  6  1  0  0  0  0
  5 11  1  0  0  0  0
  5 17  1  0  0  0  0
  6 12  1  0  0  0  0
  6 18  1  0  0  0  0
  6 19  1  0  0  0  0
  7 20  1  0  0  0  0
  8 21  1  0  0  0  0
  9 22  1  0  0  0  0
 10 23  1  0  0  0  0
 11 24  1  0  0  0  0
M  END
> <OPENEYE_ISO_SMILES>
C1[C@H]([C@H]([C@@H]([C@](O1)(CO)O)O)O)O

> <OPENEYE_INCHI>
InChI=1S/C6H12O6/c7-2-6(11)5(10)4(9)3(8)1-12-6/h3-5,7-11H,1-2H2/t3-,4-,5+,6-/m1/s1

> <OPENEYE_INCHIKEY>
LKDRXBCSQODPBY-ARQDHWQXSA-N

> <FORMULA>
C6H12O6

$$$$
