WXK
  -OEChem-02242320043D

 32 34  0     0  0  0  0  0  0999 V2000
    2.8700   -1.0430   -0.7800 C   0  0  0  0  0  0  0  0  0  0  0  0
    4.1840    0.7010    0.0780 C   0  0  0  0  0  0  0  0  0  0  0  0
    1.8890    0.7030    0.6750 C   0  0  0  0  0  0  0  0  0  0  0  0
   -0.3390    0.7090    1.2630 C   0  0  0  0  0  0  0  0  0  0  0  0
    0.4440   -1.0540   -0.1500 C   0  0  0  0  0  0  0  0  0  0  0  0
    1.7070   -0.4700   -0.0810 C   0  0  0  0  0  0  0  0  0  0  0  0
   -4.1580    1.5670    0.3110 C   0  0  0  0  0  0  0  0  0  0  0  0
   -3.2270    1.0310   -0.7780 C   0  0  0  0  0  0  0  0  0  0  0  0
   -3.2510    1.7340   -2.1370 C   0  0  0  0  0  0  0  0  0  0  0  0
   -2.0540    1.9170   -1.2030 C   0  0  0  0  0  0  0  0  0  0  0  0
   -0.5910   -0.4440    0.5390 C   0  0  0  0  0  0  0  0  0  0  0  0
   -3.0120   -0.4180   -0.7690 N   0  0  0  0  0  0  0  0  0  0  0  0
    0.8660    1.2440    1.3140 N   0  0  0  0  0  0  0  0  0  0  0  0
    3.1520    1.2650    0.7280 N   0  0  0  0  0  0  0  0  0  0  0  0
    4.0610   -0.4160   -0.6560 N   0  0  0  0  0  0  0  0  0  0  0  0
   -2.0620   -2.5000    0.1550 O   0  0  0  0  0  0  0  0  0  0  0  0
   -2.8660   -0.6900    1.6800 O   0  0  0  0  0  0  0  0  0  0  0  0
    5.2770    1.2260    0.1570 O   0  0  0  0  0  0  0  0  0  0  0  0
    2.7630   -2.0550   -1.4450 O   0  0  0  0  0  0  0  0  0  0  0  0
   -2.2140   -1.1280    0.4960 S   0  0  0  0  0  0  0  0  0  0  0  0
   -1.1480    1.1820    1.8000 H   0  0  0  0  0  0  0  0  0  0  0  0
    0.2760   -1.9540   -0.7240 H   0  0  0  0  0  0  0  0  0  0  0  0
   -5.1880    1.5370   -0.0450 H   0  0  0  0  0  0  0  0  0  0  0  0
   -4.0640    0.9510    1.2050 H   0  0  0  0  0  0  0  0  0  0  0  0
   -3.8860    2.5960    0.5480 H   0  0  0  0  0  0  0  0  0  0  0  0
   -3.1070    1.1170   -3.0250 H   0  0  0  0  0  0  0  0  0  0  0  0
   -3.9310    2.5770   -2.2560 H   0  0  0  0  0  0  0  0  0  0  0  0
   -1.9460    2.8820   -0.7070 H   0  0  0  0  0  0  0  0  0  0  0  0
   -1.1220    1.4220   -1.4760 H   0  0  0  0  0  0  0  0  0  0  0  0
   -3.3380   -0.9610   -1.5040 H   0  0  0  0  0  0  0  0  0  0  0  0
    3.2960    2.0730    1.2450 H   0  0  0  0  0  0  0  0  0  0  0  0
    4.8400   -0.7800   -1.1060 H   0  0  0  0  0  0  0  0  0  0  0  0
 16 20  2  0  0  0  0
  7  8  1  0  0  0  0
 12 20  1  0  0  0  0
  8 12  1  0  0  0  0
 17 20  2  0  0  0  0
 11 20  1  0  0  0  0
  8  9  1  0  0  0  0
  8 10  1  0  0  0  0
  4 11  2  0  0  0  0
  4 13  1  0  0  0  0
  9 10  1  0  0  0  0
  5 11  1  0  0  0  0
  3 13  2  0  0  0  0
  5  6  2  0  0  0  0
  3  6  1  0  0  0  0
  3 14  1  0  0  0  0
  1  6  1  0  0  0  0
  2 14  1  0  0  0  0
  1 19  2  0  0  0  0
  1 15  1  0  0  0  0
  2 15  1  0  0  0  0
  2 18  2  0  0  0  0
  4 21  1  0  0  0  0
  5 22  1  0  0  0  0
  7 23  1  0  0  0  0
  7 24  1  0  0  0  0
  7 25  1  0  0  0  0
  9 26  1  0  0  0  0
  9 27  1  0  0  0  0
 10 28  1  0  0  0  0
 10 29  1  0  0  0  0
 12 30  1  0  0  0  0
 14 31  1  0  0  0  0
 15 32  1  0  0  0  0
M  END
> <OPENEYE_ISO_SMILES>
CC1(CC1)NS(=O)(=O)c2cc3c([nH]c(=O)[nH]c3=O)nc2

> <OPENEYE_INCHI>
InChI=1S/C11H12N4O4S/c1-11(2-3-11)15-20(18,19)6-4-7-8(12-5-6)13-10(17)14-9(7)16/h4-5,15H,2-3H2,1H3,(H2,12,13,14,16,17)

> <OPENEYE_INCHIKEY>
CSGYXQGPYNFEFB-UHFFFAOYSA-N

> <FORMULA>
C11H12N4O4S

$$$$
