QIO
  -OEChem-02242320033D

 42 45  0     1  0  0  0  0  0999 V2000
   -1.1880   -1.4640    0.3820 C   0  0  0  0  0  0  0  0  0  0  0  0
   -3.1740   -2.8050    0.2760 C   0  0  0  0  0  0  0  0  0  0  0  0
   -1.8020   -2.6940    0.4650 C   0  0  0  0  0  0  0  0  0  0  0  0
   -3.9360   -1.6870    0.0030 C   0  0  0  0  0  0  0  0  0  0  0  0
   -3.3340   -0.4350   -0.0740 C   0  0  0  0  0  0  0  0  0  0  0  0
   -1.9470   -0.3270    0.1120 C   0  0  0  0  0  0  0  0  0  0  0  0
   -1.6210    1.1000   -0.0400 C   0  0  0  0  0  0  0  0  0  0  0  0
   -0.4420    1.8510    0.0250 C   0  0  0  0  0  0  0  0  0  0  0  0
    2.6920   -0.7790   -0.5430 C   0  0  1  0  0  0  0  0  0  0  0  0
    3.9510   -1.5700   -0.3000 C   0  0  0  0  0  0  0  0  0  0  0  0
    3.0190    0.7160   -0.5350 C   0  0  2  0  0  0  0  0  0  0  0  0
    3.6050    1.1030    0.8260 C   0  0  0  0  0  0  0  0  0  0  0  0
    2.5590    0.8490    1.9150 C   0  0  0  0  0  0  0  0  0  0  0  0
    1.2940    1.6490    1.5970 C   0  0  0  0  0  0  0  0  0  0  0  0
   -2.8300    1.7610   -0.3080 C   0  0  0  0  0  0  0  0  0  0  0  0
   -1.6730    3.7500   -0.4190 C   0  0  0  0  0  0  0  0  0  0  0  0
    1.7410    1.5200   -0.7810 C   0  0  0  0  0  0  0  0  0  0  0  0
   -3.7650   -4.0170    0.3500 F   0  0  0  0  0  0  0  0  0  0  0  0
    0.7720    1.2420    0.2860 N   0  0  2  0  0  0  0  0  0  0  0  0
   -3.8400    0.8300   -0.3240 N   0  0  0  0  0  0  0  0  0  0  0  0
   -2.8050    3.0810   -0.4890 N   0  0  0  0  0  0  0  0  0  0  0  0
   -0.5170    3.1660   -0.1700 N   0  0  0  0  0  0  0  0  0  0  0  0
    2.1410   -1.1380   -1.8120 O   0  0  0  0  0  0  0  0  0  0  0  0
    4.3870   -2.2930   -1.1650 O   0  0  0  0  0  0  0  0  0  0  0  0
    4.5890   -1.4710    0.8770 O   0  0  0  0  0  0  0  0  0  0  0  0
   -0.1220   -1.3800    0.5300 H   0  0  0  0  0  0  0  0  0  0  0  0
   -1.2150   -3.5750    0.6780 H   0  0  0  0  0  0  0  0  0  0  0  0
   -5.0020   -1.7830   -0.1430 H   0  0  0  0  0  0  0  0  0  0  0  0
    1.9690   -0.9970    0.2420 H   0  0  0  0  0  0  0  0  0  0  0  0
    3.7440    0.9340   -1.3190 H   0  0  0  0  0  0  0  0  0  0  0  0
    4.4920    0.5010    1.0250 H   0  0  0  0  0  0  0  0  0  0  0  0
    3.8760    2.1590    0.8190 H   0  0  0  0  0  0  0  0  0  0  0  0
    2.3190   -0.2140    1.9470 H   0  0  0  0  0  0  0  0  0  0  0  0
    2.9560    1.1610    2.8810 H   0  0  0  0  0  0  0  0  0  0  0  0
    0.5420    1.4590    2.3630 H   0  0  0  0  0  0  0  0  0  0  0  0
    1.5330    2.7130    1.5780 H   0  0  0  0  0  0  0  0  0  0  0  0
   -1.6920    4.8190   -0.5720 H   0  0  0  0  0  0  0  0  0  0  0  0
    1.9770    2.5850   -0.7890 H   0  0  0  0  0  0  0  0  0  0  0  0
    1.3140    1.2370   -1.7430 H   0  0  0  0  0  0  0  0  0  0  0  0
   -4.7740    1.0290   -0.4880 H   0  0  0  0  0  0  0  0  0  0  0  0
    2.7320   -0.9710   -2.5590 H   0  0  0  0  0  0  0  0  0  0  0  0
    5.3930   -1.9980    0.9860 H   0  0  0  0  0  0  0  0  0  0  0  0
  9 23  1  0  0  0  0
 10 24  2  0  0  0  0
 10 25  1  0  0  0  0
  9 10  1  0  0  0  0
  9 11  1  0  0  0  0
 11 12  1  0  0  0  0
 12 13  1  0  0  0  0
 13 14  1  0  0  0  0
 14 19  1  0  0  0  0
  7  8  2  0  0  0  0
  6  7  1  0  0  0  0
  5  6  2  0  0  0  0
  2  4  2  0  0  0  0
  1  3  2  0  0  0  0
  2  3  1  0  0  0  0
  2 18  1  0  0  0  0
  4  5  1  0  0  0  0
  5 20  1  0  0  0  0
 15 20  1  0  0  0  0
 15 21  2  0  0  0  0
 16 21  1  0  0  0  0
 16 22  2  0  0  0  0
  8 19  1  0  0  0  0
 17 19  1  0  0  0  0
 11 17  1  0  0  0  0
  8 22  1  0  0  0  0
  7 15  1  0  0  0  0
  1  6  1  0  0  0  0
  1 26  1  0  0  0  0
  3 27  1  0  0  0  0
  4 28  1  0  0  0  0
  9 29  1  0  0  0  0
 11 30  1  0  0  0  0
 12 31  1  0  0  0  0
 12 32  1  0  0  0  0
 13 33  1  0  0  0  0
 13 34  1  0  0  0  0
 14 35  1  0  0  0  0
 14 36  1  0  0  0  0
 16 37  1  0  0  0  0
 17 38  1  0  0  0  0
 17 39  1  0  0  0  0
 20 40  1  0  0  0  0
 23 41  1  0  0  0  0
 25 42  1  0  0  0  0
M  END
> <OPENEYE_ISO_SMILES>
c1cc2c(cc1F)[nH]c3c2c(ncn3)[N@@]4CCC[C@H](C4)[C@H](C(=O)O)O

> <OPENEYE_INCHI>
InChI=1S/C17H17FN4O3/c18-10-3-4-11-12(6-10)21-15-13(11)16(20-8-19-15)22-5-1-2-9(7-22)14(23)17(24)25/h3-4,6,8-9,14,23H,1-2,5,7H2,(H,24,25)(H,19,20,21)/t9-,14-/m1/s1

> <OPENEYE_INCHIKEY>
ILIKJSAPLUUPEN-YMTOWFKASA-N

> <FORMULA>
C17H17FN4O3

$$$$
