QIR
  -OEChem-02242320033D

 42 45  0     1  0  0  0  0  0999 V2000
    2.7790    1.2660    0.0200 C   0  0  2  0  0  0  0  0  0  0  0  0
    2.4020    1.7230    1.4050 C   0  0  0  0  0  0  0  0  0  0  0  0
    3.3230   -0.1630    0.0850 C   0  0  2  0  0  0  0  0  0  0  0  0
    3.8390   -0.5770   -1.2960 C   0  0  0  0  0  0  0  0  0  0  0  0
    2.6760   -0.5660   -2.2910 C   0  0  0  0  0  0  0  0  0  0  0  0
    1.5770   -1.5080   -1.7940 C   0  0  0  0  0  0  0  0  0  0  0  0
    0.0340   -1.8210   -0.0480 C   0  0  0  0  0  0  0  0  0  0  0  0
   -1.2390   -1.2490    0.0520 C   0  0  0  0  0  0  0  0  0  0  0  0
   -1.7930    0.0900   -0.2020 C   0  0  0  0  0  0  0  0  0  0  0  0
   -3.1630    0.0120    0.0940 C   0  0  0  0  0  0  0  0  0  0  0  0
   -3.9580    1.1430   -0.0550 C   0  0  0  0  0  0  0  0  0  0  0  0
   -3.4000    2.3280   -0.4910 C   0  0  0  0  0  0  0  0  0  0  0  0
   -2.0450    2.4030   -0.7840 C   0  0  0  0  0  0  0  0  0  0  0  0
   -1.2420    1.2920   -0.6420 C   0  0  0  0  0  0  0  0  0  0  0  0
   -2.3080   -2.0490    0.4860 C   0  0  0  0  0  0  0  0  0  0  0  0
   -0.8500   -3.8220    0.6780 C   0  0  0  0  0  0  0  0  0  0  0  0
    2.2060   -1.1170    0.5130 C   0  0  0  0  0  0  0  0  0  0  0  0
   -4.1790    3.4220   -0.6350 F   0  0  0  0  0  0  0  0  0  0  0  0
    1.1170   -1.0690   -0.4700 N   0  0  1  0  0  0  0  0  0  0  0  0
   -3.4460   -1.2800    0.5050 N   0  0  0  0  0  0  0  0  0  0  0  0
   -2.0640   -3.3250    0.7860 N   0  0  0  0  0  0  0  0  0  0  0  0
    0.1810   -3.1030    0.2790 N   0  0  0  0  0  0  0  0  0  0  0  0
    3.7820    2.1340   -0.5120 O   0  0  0  0  0  0  0  0  0  0  0  0
    3.0000    2.6370    1.9230 O   0  0  0  0  0  0  0  0  0  0  0  0
    1.4030    1.1160    2.0640 O   0  0  0  0  0  0  0  0  0  0  0  0
    1.8990    1.2900   -0.6230 H   0  0  0  0  0  0  0  0  0  0  0  0
    4.1380   -0.2090    0.8070 H   0  0  0  0  0  0  0  0  0  0  0  0
    4.6060    0.1260   -1.6240 H   0  0  0  0  0  0  0  0  0  0  0  0
    4.2640   -1.5790   -1.2410 H   0  0  0  0  0  0  0  0  0  0  0  0
    2.2780    0.4450   -2.3750 H   0  0  0  0  0  0  0  0  0  0  0  0
    3.0280   -0.9000   -3.2670 H   0  0  0  0  0  0  0  0  0  0  0  0
    0.7410   -1.4920   -2.4930 H   0  0  0  0  0  0  0  0  0  0  0  0
    1.9720   -2.5220   -1.7230 H   0  0  0  0  0  0  0  0  0  0  0  0
   -5.0140    1.0940    0.1710 H   0  0  0  0  0  0  0  0  0  0  0  0
   -1.6190    3.3350   -1.1250 H   0  0  0  0  0  0  0  0  0  0  0  0
   -0.1890    1.3530   -0.8700 H   0  0  0  0  0  0  0  0  0  0  0  0
   -0.6920   -4.8610    0.9300 H   0  0  0  0  0  0  0  0  0  0  0  0
    2.5980   -2.1320    0.5730 H   0  0  0  0  0  0  0  0  0  0  0  0
    1.8270   -0.8160    1.4900 H   0  0  0  0  0  0  0  0  0  0  0  0
   -4.3240   -1.5980    0.7680 H   0  0  0  0  0  0  0  0  0  0  0  0
    4.5650    2.2200    0.0480 H   0  0  0  0  0  0  0  0  0  0  0  0
    1.1980    1.4440    2.9500 H   0  0  0  0  0  0  0  0  0  0  0  0
  1 23  1  0  0  0  0
  2 24  2  0  0  0  0
  2 25  1  0  0  0  0
  1  2  1  0  0  0  0
  1  3  1  0  0  0  0
  3  4  1  0  0  0  0
  4  5  1  0  0  0  0
  5  6  1  0  0  0  0
  6 19  1  0  0  0  0
  7  8  2  0  0  0  0
  8  9  1  0  0  0  0
  9 10  2  0  0  0  0
 11 12  2  0  0  0  0
 13 14  2  0  0  0  0
 12 13  1  0  0  0  0
 12 18  1  0  0  0  0
 10 11  1  0  0  0  0
 10 20  1  0  0  0  0
 15 20  1  0  0  0  0
 15 21  2  0  0  0  0
 16 21  1  0  0  0  0
 16 22  2  0  0  0  0
  7 19  1  0  0  0  0
 17 19  1  0  0  0  0
  3 17  1  0  0  0  0
  7 22  1  0  0  0  0
  8 15  1  0  0  0  0
  9 14  1  0  0  0  0
  1 26  1  0  0  0  0
  3 27  1  0  0  0  0
  4 28  1  0  0  0  0
  4 29  1  0  0  0  0
  5 30  1  0  0  0  0
  5 31  1  0  0  0  0
  6 32  1  0  0  0  0
  6 33  1  0  0  0  0
 11 34  1  0  0  0  0
 13 35  1  0  0  0  0
 14 36  1  0  0  0  0
 16 37  1  0  0  0  0
 17 38  1  0  0  0  0
 17 39  1  0  0  0  0
 20 40  1  0  0  0  0
 23 41  1  0  0  0  0
 25 42  1  0  0  0  0
M  END
> <OPENEYE_ISO_SMILES>
c1cc2c(cc1F)[nH]c3c2c(ncn3)[N@@]4CCC[C@H](C4)[C@@H](C(=O)O)O

> <OPENEYE_INCHI>
InChI=1S/C17H17FN4O3/c18-10-3-4-11-12(6-10)21-15-13(11)16(20-8-19-15)22-5-1-2-9(7-22)14(23)17(24)25/h3-4,6,8-9,14,23H,1-2,5,7H2,(H,24,25)(H,19,20,21)/t9-,14+/m1/s1

> <OPENEYE_INCHIKEY>
ILIKJSAPLUUPEN-OTYXRUKQSA-N

> <FORMULA>
C17H17FN4O3

$$$$
