@<TRIPOS>MOLECULE
/home/pku/3cl/gett_pdb/7DGF/7DGF_mol2/ligand/7DGF_H60.pdb
 30 31 0 0 0
SMALL
GASTEIGER

@<TRIPOS>ATOM
      1  C20      -11.0850   11.8800   69.2850 C.2   401  H60401      0.2421
      2  O29      -11.5230   12.0130   68.1930 O.2   401  H60401     -0.2733
      3  C21      -10.7400   10.4830   69.8310 C.3   401  H60401      0.0915
      4  C22      -10.1700    9.6100   68.9820 C.3   401  H60401      0.0360
      5  C23       -9.9620    8.2520   69.7590 C.ar  401  H60401     -0.0217
      6  C24       -9.5600    8.2710   71.1120 C.ar  401  H60401     -0.0043
      7  C25       -9.3890    7.0640   71.8160 C.ar  401  H60401     -0.0003
      8  C26       -9.6350    5.8480   71.1770 C.ar  401  H60401     -0.0000
      9  C27      -10.0520    5.8280   69.8260 C.ar  401  H60401     -0.0003
     10  C28      -10.2240    7.0290   69.1210 C.ar  401  H60401     -0.0043
     11  N19      -10.9060   13.0290   70.1460 N.am  401  H60401     -0.1978
     12  C14      -11.2730   14.3490   69.6990 C.3   401  H60401      0.1727
     13  C13      -10.5110   14.8370   68.4480 C.2   401  H60401      0.2616
     14  O30       -9.3170   14.7770   68.3830 O.2   401  H60401     -0.2715
     15  C15      -11.1080   15.3080   70.8730 C.3   401  H60401      0.0311
     16  C16      -11.6110   14.6090   72.1620 C.3   401  H60401      0.0023
     17  C17      -12.1880   15.5640   73.1950 C.3   401  H60401      0.0001
     18  C18      -11.2840   15.7210   74.4230 C.3   401  H60401      0.0000
     19  C07       -8.6200   12.3260   64.5870 C.3   401  H60401      0.0239
     20  C03      -10.6160   15.8500   66.1400 C.3   401  H60401      0.1601
     21  C06       -9.3880   13.1390   65.5240 C.3   401  H60401      0.0110
     22  C10      -11.4170   12.6490   63.9730 C.2   401  H60401      0.2410
     23  C04      -10.9790   14.9330   64.9440 C.3   401  H60401      0.0388
     24  C02      -11.0770   17.2700   65.8480 C.2   401  H60401      0.2287
     25  C05      -10.7590   13.3810   65.2320 C.3   401  H60401      0.0804
     26  C08       -9.3410   11.1450   64.0440 C.3   401  H60401      0.1152
     27  N12      -11.2940   15.3730   67.3440 N.am  401  H60401     -0.1977
     28  N09      -10.6480   11.4880   63.3520 N.am  401  H60401     -0.2054
     29  O01      -10.6090   17.8540   64.8960 O.2   401  H60401     -0.2864
     30  O11      -12.4800   13.0140   63.5410 O.2   401  H60401     -0.2734
@<TRIPOS>BOND
     1    28    22   am
     2    28    26    1
     3    30    22    2
     4    22    25    1
     5    26    19    1
     6    19    21    1
     7    29    24    2
     8    23    25    1
     9    23    20    1
    10    25    21    1
    11    24    20    1
    12    20    27    1
    13    27    13   am
    14     2     1    2
    15    14    13    2
    16    13    12    1
    17     4     5    1
    18     4     3    1
    19    10     5   ar
    20    10     9   ar
    21     1     3    1
    22     1    11   am
    23    12    11    1
    24    12    15    1
    25     5     6   ar
    26     9     8   ar
    27    15    16    1
    28     6     7   ar
    29     8     7   ar
    30    16    17    1
    31    17    18    1
