@<TRIPOS>MOLECULE
/home/pku/3cl/gett_pdb/7TEK/7TEK_mol2/ligand/7TEK_I2D.pdb
 29 32 0 0 0
SMALL
GASTEIGER

@<TRIPOS>ATOM
      1  C02       14.0170   -0.0210   21.7020 C.ar  401  I2D401      0.0574
      2  C03       12.7040   -0.0890   22.1700 C.ar  401  I2D401      0.0088
      3  C04       12.1940    0.9790   22.8990 C.ar  401  I2D401     -0.0012
      4  C05       10.7670    0.9660   23.4380 C.3   401  I2D401      0.1248
      5  C07        9.8860   -1.3180   23.6620 C.ar  401  I2D401      0.0542
      6  C08        9.1690   -1.2460   24.8490 C.ar  401  I2D401      0.0149
      7  C09        9.0360   -2.3580   25.6630 C.ar  401  I2D401      0.0011
      8  C10        9.6420   -3.5440   25.2870 C.ar  401  I2D401     -0.0004
      9  C11        9.4960   -4.7970   26.1500 C.2   401  I2D401      0.0249
     10  C12       10.4400   -5.7740   26.3300 C.2   401  I2D401      0.1194
     11  C15        8.3630   -5.1660   26.8610 C.3   401  I2D401      0.1771
     12  C16       10.3630   -3.6130   24.1040 C.ar  401  I2D401      0.0011
     13  C17       10.4970   -2.4990   23.2970 C.ar  401  I2D401      0.0149
     14  C18        9.4950    0.0240   21.4980 C.2   401  I2D401      0.2341
     15  C19        8.7050   -1.0850   20.8150 C.3   401  I2D401      0.1134
     16  C20        7.6860   -0.4940   19.8480 C.ar  401  I2D401      0.0061
     17  C21        6.4810    0.0030   20.3210 C.ar  401  I2D401     -0.0007
     18  C22        5.5870    0.5380   19.4110 C.ar  401  I2D401      0.0204
     19  C23        5.9350    0.5610   18.0690 C.ar  401  I2D401      0.0989
     20  C25        7.9650   -0.4390   18.4920 C.ar  401  I2D401      0.0951
     21  C27       12.9770    2.0880   23.1550 C.ar  401  I2D401     -0.0025
     22  C28       14.2770    2.1530   22.6890 C.ar  401  I2D401      0.0006
     23  C29       14.8000    1.0970   21.9720 C.ar  401  I2D401      0.0114
     24  N06       10.0310   -0.1280   22.8440 N.am  401  I2D401     -0.2541
     25  N13        9.9180   -6.6830   27.1170 N.2   401  I2D401     -0.1510
     26  N14        8.6380   -6.3340   27.4590 N.2   401  I2D401     -0.1695
     27  N24        7.0960    0.0810   17.6530 N.ar  401  I2D401     -0.2426
     28  O26        9.6750    1.0390   20.9140 O.2   401  I2D401     -0.2742
     29 CL01       14.7350   -1.3420   20.7260 Cl    401  I2D401     -0.0823
@<TRIPOS>BOND
     1    27    19   ar
     2    27    20   ar
     3    19    18   ar
     4    20    16   ar
     5    18    17   ar
     6    16    17   ar
     7    16    15    1
     8    29     1    1
     9    15    14    1
    10    28    14    2
    11    14    24   am
    12     1    23   ar
    13     1     2   ar
    14    23    22   ar
    15     2     3   ar
    16    22    21   ar
    17    24     4    1
    18    24     5    1
    19     3    21   ar
    20     3     4    1
    21    13     5   ar
    22    13    12   ar
    23     5     6   ar
    24    12     8   ar
    25     6     7   ar
    26     8     7   ar
    27     8     9    1
    28     9    10    2
    29     9    11    1
    30    10    25    1
    31    11    26    1
    32    25    26    2
