4W8
  -OEChem-02242320013D

 78 84  0     1  0  0  0  0  0999 V2000
    7.6670    4.0280    0.7600 C   0  0  0  0  0  0  0  0  0  0  0  0
    8.4240    3.0350    1.3650 C   0  0  0  0  0  0  0  0  0  0  0  0
   -7.5320    3.2390    0.5100 C   0  0  0  0  0  0  0  0  0  0  0  0
    6.5270    3.7190    0.0810 C   0  0  0  0  0  0  0  0  0  0  0  0
   -6.2850    3.0660   -0.0500 C   0  0  0  0  0  0  0  0  0  0  0  0
   -8.0990    2.2470    1.2960 C   0  0  0  0  0  0  0  0  0  0  0  0
    8.0270    1.7190    1.2850 C   0  0  0  0  0  0  0  0  0  0  0  0
   -5.2240   -0.1950    1.0010 C   0  0  0  0  0  0  0  0  0  0  0  0
   -6.1520    0.8710    0.9590 C   0  0  0  0  0  0  0  0  0  0  0  0
    6.0990    2.3800   -0.0230 C   0  0  0  0  0  0  0  0  0  0  0  0
   -5.5810    1.8850    0.1660 C   0  0  0  0  0  0  0  0  0  0  0  0
   -7.4230    1.0660    1.5270 C   0  0  0  0  0  0  0  0  0  0  0  0
    6.8640    1.3850    0.5950 C   0  0  0  0  0  0  0  0  0  0  0  0
   -4.1450    0.1660    0.2570 C   0  0  0  0  0  0  0  0  0  0  0  0
    4.8440    0.6020   -0.5910 C   0  0  0  0  0  0  0  0  0  0  0  0
    1.2030   -2.6060    1.5340 C   0  0  0  0  0  0  0  0  0  0  0  0
   -2.9480   -0.6570    0.0370 C   0  0  0  0  0  0  0  0  0  0  0  0
    3.6860   -0.1210   -1.2300 C   0  0  2  0  0  0  0  0  0  0  0  0
    0.3560   -0.4470   -0.8380 C   0  0  0  0  0  0  0  0  0  0  0  0
    3.1270   -2.7890    2.9800 C   0  0  0  0  0  0  0  0  0  0  0  0
    2.6030   -4.1700    2.5290 C   0  0  0  0  0  0  0  0  0  0  0  0
   -2.1470    0.8110   -1.8780 C   0  0  0  0  0  0  0  0  0  0  0  0
    2.4340   -1.8440    1.9720 C   0  0  1  0  0  0  0  0  0  0  0  0
   -0.8880   -1.0990   -1.3850 C   0  0  2  0  0  0  0  0  0  0  0  0
   -1.7340    0.2400   -3.2520 C   0  0  1  0  0  0  0  0  0  0  0  0
   -0.9030   -1.0190   -2.9270 C   0  0  2  0  0  0  0  0  0  0  0  0
   -2.2500   -1.1460   -3.6420 C   0  0  0  0  0  0  0  0  0  0  0  0
   -2.2270   -1.5150   -5.1270 C   0  0  0  0  0  0  0  0  0  0  0  0
   -3.4230   -1.7130   -2.8400 C   0  0  0  0  0  0  0  0  0  0  0  0
   -9.2780    0.3660    2.8370 C   0  0  0  0  0  0  0  0  0  0  0  0
    3.3490   -1.5720    0.7760 C   0  0  0  0  0  0  0  0  0  0  0  0
    2.6910   -0.5450   -0.1480 C   0  0  2  0  0  0  0  0  0  0  0  0
    5.0160    1.8690   -0.6400 N   0  0  0  0  0  0  0  0  0  0  0  0
   -4.3520    1.4340   -0.2550 N   0  0  0  0  0  0  0  0  0  0  0  0
    1.3220   -3.9040    1.8630 N   0  0  0  0  0  0  0  0  0  0  0  0
   -2.0930   -0.3500   -0.9600 N   0  0  0  0  0  0  0  0  0  0  0  0
    1.5100   -1.1410   -0.7770 N   0  0  0  0  0  0  0  0  0  0  0  0
    0.2460   -2.1160    0.9730 O   0  0  0  0  0  0  0  0  0  0  0  0
   -2.7270   -1.6150    0.7540 O   0  0  0  0  0  0  0  0  0  0  0  0
    4.1660   -1.2780   -1.9160 O   0  0  0  0  0  0  0  0  0  0  0  0
    0.3190    0.7020   -0.4520 O   0  0  0  0  0  0  0  0  0  0  0  0
   -7.9840    0.0960    2.2940 O   0  0  0  0  0  0  0  0  0  0  0  0
    6.0800   -0.1650    0.3010 S   0  0  0  0  0  0  0  0  0  0  0  0
    7.9830    5.0580    0.8310 H   0  0  0  0  0  0  0  0  0  0  0  0
    9.3260    3.2940    1.8990 H   0  0  0  0  0  0  0  0  0  0  0  0
   -8.0710    4.1590    0.3380 H   0  0  0  0  0  0  0  0  0  0  0  0
    5.9480    4.5050   -0.3800 H   0  0  0  0  0  0  0  0  0  0  0  0
   -5.8530    3.8480   -0.6580 H   0  0  0  0  0  0  0  0  0  0  0  0
   -9.0760    2.4000    1.7310 H   0  0  0  0  0  0  0  0  0  0  0  0
    8.6170    0.9470    1.7560 H   0  0  0  0  0  0  0  0  0  0  0  0
   -5.3510   -1.1300    1.5260 H   0  0  0  0  0  0  0  0  0  0  0  0
    3.1900    0.5420   -1.9390 H   0  0  0  0  0  0  0  0  0  0  0  0
    2.8150   -2.5670    4.0000 H   0  0  0  0  0  0  0  0  0  0  0  0
    4.2120   -2.7340    2.8850 H   0  0  0  0  0  0  0  0  0  0  0  0
    3.3020   -4.6300    1.8310 H   0  0  0  0  0  0  0  0  0  0  0  0
    2.4510   -4.8170    3.3930 H   0  0  0  0  0  0  0  0  0  0  0  0
   -1.4440    1.5800   -1.5590 H   0  0  0  0  0  0  0  0  0  0  0  0
   -3.1580    1.2150   -1.9210 H   0  0  0  0  0  0  0  0  0  0  0  0
    2.1520   -0.9090    2.4570 H   0  0  0  0  0  0  0  0  0  0  0  0
   -0.9480   -2.1360   -1.0560 H   0  0  0  0  0  0  0  0  0  0  0  0
   -1.4260    0.9490   -4.0210 H   0  0  0  0  0  0  0  0  0  0  0  0
    0.0230   -1.2480   -3.4540 H   0  0  0  0  0  0  0  0  0  0  0  0
   -3.2480   -1.5740   -5.5020 H   0  0  0  0  0  0  0  0  0  0  0  0
   -1.6790   -0.7530   -5.6820 H   0  0  0  0  0  0  0  0  0  0  0  0
   -1.7360   -2.4800   -5.2540 H   0  0  0  0  0  0  0  0  0  0  0  0
   -4.3090   -1.7570   -3.4740 H   0  0  0  0  0  0  0  0  0  0  0  0
   -3.1750   -2.7160   -2.4930 H   0  0  0  0  0  0  0  0  0  0  0  0
   -3.6220   -1.0700   -1.9830 H   0  0  0  0  0  0  0  0  0  0  0  0
   -9.9840    0.5420    2.0250 H   0  0  0  0  0  0  0  0  0  0  0  0
   -9.6100   -0.4880    3.4280 H   0  0  0  0  0  0  0  0  0  0  0  0
   -9.2280    1.2500    3.4730 H   0  0  0  0  0  0  0  0  0  0  0  0
    4.3040   -1.1830    1.1300 H   0  0  0  0  0  0  0  0  0  0  0  0
    3.5160   -2.5000    0.2280 H   0  0  0  0  0  0  0  0  0  0  0  0
    2.3920    0.3270    0.4330 H   0  0  0  0  0  0  0  0  0  0  0  0
   -3.7320    1.9240   -0.8170 H   0  0  0  0  0  0  0  0  0  0  0  0
    0.6480   -4.5780    1.6840 H   0  0  0  0  0  0  0  0  0  0  0  0
    1.5580   -2.0350   -1.1500 H   0  0  0  0  0  0  0  0  0  0  0  0
    4.6200   -1.9140   -1.3450 H   0  0  0  0  0  0  0  0  0  0  0  0
 27 28  1  0  0  0  0
  2  7  2  0  0  0  0
  1  2  1  0  0  0  0
  7 13  1  0  0  0  0
 27 29  1  0  0  0  0
 25 27  1  0  0  0  0
 26 27  1  0  0  0  0
  1  4  2  0  0  0  0
 13 43  1  0  0  0  0
 10 13  2  0  0  0  0
 25 26  1  0  0  0  0
 22 25  1  0  0  0  0
 15 43  1  0  0  0  0
 24 26  1  0  0  0  0
  4 10  1  0  0  0  0
 10 33  1  0  0  0  0
 22 36  1  0  0  0  0
 24 36  1  0  0  0  0
 19 24  1  0  0  0  0
 15 33  2  0  0  0  0
 15 18  1  0  0  0  0
 17 36  1  0  0  0  0
 19 37  1  0  0  0  0
 19 41  2  0  0  0  0
 18 40  1  0  0  0  0
 18 32  1  0  0  0  0
 32 37  1  0  0  0  0
 30 42  1  0  0  0  0
 12 42  1  0  0  0  0
  8 14  2  0  0  0  0
  8  9  1  0  0  0  0
 14 17  1  0  0  0  0
 17 39  2  0  0  0  0
 14 34  1  0  0  0  0
 31 32  1  0  0  0  0
  9 12  2  0  0  0  0
  9 11  1  0  0  0  0
  6 12  1  0  0  0  0
 11 34  1  0  0  0  0
 23 31  1  0  0  0  0
  5 11  2  0  0  0  0
  3  6  2  0  0  0  0
 20 23  1  0  0  0  0
 16 23  1  0  0  0  0
  3  5  1  0  0  0  0
 20 21  1  0  0  0  0
 16 38  2  0  0  0  0
 16 35  1  0  0  0  0
 21 35  1  0  0  0  0
  1 44  1  0  0  0  0
  2 45  1  0  0  0  0
  3 46  1  0  0  0  0
  4 47  1  0  0  0  0
  5 48  1  0  0  0  0
  6 49  1  0  0  0  0
  7 50  1  0  0  0  0
  8 51  1  0  0  0  0
 18 52  1  0  0  0  0
 20 53  1  0  0  0  0
 20 54  1  0  0  0  0
 21 55  1  0  0  0  0
 21 56  1  0  0  0  0
 22 57  1  0  0  0  0
 22 58  1  0  0  0  0
 23 59  1  0  0  0  0
 24 60  1  0  0  0  0
 25 61  1  0  0  0  0
 26 62  1  0  0  0  0
 28 63  1  0  0  0  0
 28 64  1  0  0  0  0
 28 65  1  0  0  0  0
 29 66  1  0  0  0  0
 29 67  1  0  0  0  0
 29 68  1  0  0  0  0
 30 69  1  0  0  0  0
 30 70  1  0  0  0  0
 30 71  1  0  0  0  0
 31 72  1  0  0  0  0
 31 73  1  0  0  0  0
 32 74  1  0  0  0  0
 34 75  1  0  0  0  0
 35 76  1  0  0  0  0
 37 77  1  0  0  0  0
 40 78  1  0  0  0  0
M  END
> <OPENEYE_ISO_SMILES>
CC1([C@@H]2[C@H]1[C@H](N(C2)C(=O)c3cc4c([nH]3)cccc4OC)C(=O)N[C@@H](C[C@@H]5CCNC5=O)[C@@H](c6nc7ccccc7s6)O)C

> <OPENEYE_INCHI>
InChI=1S/C32H35N5O5S/c1-32(2)18-15-37(31(41)22-14-17-19(34-22)8-6-9-23(17)42-3)26(25(18)32)29(40)35-21(13-16-11-12-33-28(16)39)27(38)30-36-20-7-4-5-10-24(20)43-30/h4-10,14,16,18,21,25-27,34,38H,11-13,15H2,1-3H3,(H,33,39)(H,35,40)/t16-,18-,21-,25-,26-,27-/m0/s1

> <OPENEYE_INCHIKEY>
CVWZBMVWUPHSSU-AJEOIHGXSA-N

> <FORMULA>
C32H35N5O5S

$$$$
