@<TRIPOS>MOLECULE
/home/pku/3cl/gett_pdb/5RHE/5RHE_mol2/ligand/5RHE_UPD.pdb
 20 21 0 0 0
SMALL
GASTEIGER

@<TRIPOS>ATOM
      1  N1         6.7260   -0.8980   26.1500 N.am  1001  UPD1001    -0.1776
      2  C4         6.6530   -3.6410   20.2380 C.2   1001  UPD1001     0.2261
      3  C5         7.0410   -2.7050   19.1100 C.3   1001  UPD1001     0.0948
      4  C6         7.7900   -2.0840   21.8520 C.3   1001  UPD1001     0.0939
      5  C7         7.0250   -1.3020   22.9260 C.3   1001  UPD1001     0.0307
      6  C8         6.2910   -0.0990   27.2300 C.ar  1001  UPD1001     0.0927
      7  C10        5.2310    0.1660   29.3650 C.ar  1001  UPD1001     0.0591
      8  C13        6.7560    1.2060   27.3640 C.ar  1001  UPD1001     0.1186
      9  O1         5.9700   -4.6330   20.0220 O.2   1001  UPD1001    -0.2749
     10  N          7.0710   -3.3100   21.4780 N.am  1001  UPD1001    -0.2795
     11  C3         6.8200   -4.1920   22.6250 C.3   1001  UPD1001     0.0939
     12  C2         6.0070   -3.4710   23.6970 C.3   1001  UPD1001     0.0307
     13  C1         6.7450   -2.2000   24.1400 C.3   1001  UPD1001     0.0820
     14  C          5.9660   -1.4590   25.1900 C.2   1001  UPD1001     0.2452
     15  O          4.7420   -1.3780   25.1540 O.2   1001  UPD1001    -0.2730
     16  N2         6.5190    1.9810   28.4300 N.ar  1001  UPD1001    -0.2088
     17  C11        5.7890    1.4510   29.4060 C.ar  1001  UPD1001     0.2251
     18  O2         5.5740    2.1300   30.5530 O.3   1001  UPD1001    -0.4561
     19  C12        6.1170    3.4490   30.6710 C.3   1001  UPD1001     0.2542
     20  C9         5.4930   -0.6040   28.2470 C.ar  1001  UPD1001     0.0230
@<TRIPOS>BOND
     1     3     2    1
     2     9     2    2
     3     2    10   am
     4    10     4    1
     5    10    11    1
     6     4     5    1
     7    11    12    1
     8     5    13    1
     9    12    13    1
    10    13    14    1
    11    15    14    2
    12    14     1   am
    13     1     6    1
    14     6     8   ar
    15     6    20   ar
    16     8    16   ar
    17    20     7   ar
    18    16    17   ar
    19     7    17   ar
    20    17    18    1
    21    18    19    1
