VJA
  -OEChem-02242320043D

 76 77  0     1  0  0  0  0  0999 V2000
   10.1330    1.6790    1.0200 C   0  0  0  0  0  0  0  0  0  0  0  0
   -4.8390   -2.2990    1.5660 C   0  0  0  0  0  0  0  0  0  0  0  0
    2.1150   -1.0530   -0.4280 C   0  0  2  0  0  0  0  0  0  0  0  0
    0.9330   -0.3430    0.1800 C   0  0  0  0  0  0  0  0  0  0  0  0
   -1.4290    0.2550    0.1810 C   0  0  2  0  0  0  0  0  0  0  0  0
   -2.7000   -0.5330   -0.0050 C   0  0  0  0  0  0  0  0  0  0  0  0
   -4.9820   -1.0870    0.6430 C   0  0  1  0  0  0  0  0  0  0  0  0
   -6.2090   -0.2720    1.0590 C   0  0  0  0  0  0  0  0  0  0  0  0
    9.8540    0.3420    1.2350 C   0  0  0  0  0  0  0  0  0  0  0  0
   -6.4240    0.8690    0.0620 C   0  0  2  0  0  0  0  0  0  0  0  0
   -7.6420    1.7270    0.4770 C   0  0  0  0  0  0  0  0  0  0  0  0
   -8.7800    1.0760   -0.3390 C   0  0  0  0  0  0  0  0  0  0  0  0
   -6.8030    0.3210   -1.2960 C   0  0  0  0  0  0  0  0  0  0  0  0
    8.7830   -0.2520    0.5950 C   0  0  0  0  0  0  0  0  0  0  0  0
    2.0550   -2.5400   -0.0730 C   0  0  0  0  0  0  0  0  0  0  0  0
    0.7570   -3.1410   -0.6160 C   0  0  0  0  0  0  0  0  0  0  0  0
    3.2510   -3.2620   -0.6960 C   0  0  0  0  0  0  0  0  0  0  0  0
   -1.5380    1.5830   -0.5720 C   0  0  0  0  0  0  0  0  0  0  0  0
   -2.6390    2.4380    0.0580 C   0  0  0  0  0  0  0  0  0  0  0  0
   -2.2220    2.8450    1.4730 C   0  0  0  0  0  0  0  0  0  0  0  0
   -2.8590    3.6920   -0.7900 C   0  0  0  0  0  0  0  0  0  0  0  0
    7.9890    0.4910   -0.2590 C   0  0  0  0  0  0  0  0  0  0  0  0
    8.2670    1.8280   -0.4730 C   0  0  0  0  0  0  0  0  0  0  0  0
    9.3400    2.4210    0.1660 C   0  0  0  0  0  0  0  0  0  0  0  0
    6.8220   -0.1580   -0.9570 C   0  0  0  0  0  0  0  0  0  0  0  0
    4.4940   -0.5600   -0.6170 C   0  0  0  0  0  0  0  0  0  0  0  0
    3.3550   -0.4750    0.0980 N   0  0  0  0  0  0  0  0  0  0  0  0
   -0.2970   -0.5120   -0.3440 N   0  0  0  0  0  0  0  0  0  0  0  0
   -3.7830   -0.2520    0.7460 N   0  0  0  0  0  0  0  0  0  0  0  0
   -8.1250    0.4540   -1.4970 N   0  0  0  0  0  0  0  0  0  0  0  0
   -4.7990   -1.8610    2.9250 O   0  0  0  0  0  0  0  0  0  0  0  0
   -6.0260   -0.1680   -2.0890 O   0  0  0  0  0  0  0  0  0  0  0  0
    4.4930   -1.1150   -1.6970 O   0  0  0  0  0  0  0  0  0  0  0  0
    1.0880    0.3820    1.1400 O   0  0  0  0  0  0  0  0  0  0  0  0
   -2.7480   -1.4200   -0.8310 O   0  0  0  0  0  0  0  0  0  0  0  0
    5.6330   -0.0290   -0.1330 O   0  0  0  0  0  0  0  0  0  0  0  0
   10.9670    2.1440    1.5230 H   0  0  0  0  0  0  0  0  0  0  0  0
   -5.6900   -2.9660    1.4240 H   0  0  0  0  0  0  0  0  0  0  0  0
   -3.9180   -2.8310    1.3270 H   0  0  0  0  0  0  0  0  0  0  0  0
    2.0910   -0.9360   -1.5110 H   0  0  0  0  0  0  0  0  0  0  0  0
   -1.2750    0.4510    1.2420 H   0  0  0  0  0  0  0  0  0  0  0  0
   -5.1030   -1.4260   -0.3860 H   0  0  0  0  0  0  0  0  0  0  0  0
   -7.0880   -0.9170    1.0680 H   0  0  0  0  0  0  0  0  0  0  0  0
   -6.0500    0.1410    2.0550 H   0  0  0  0  0  0  0  0  0  0  0  0
   10.4740   -0.2380    1.9020 H   0  0  0  0  0  0  0  0  0  0  0  0
   -5.5280    1.4850   -0.0110 H   0  0  0  0  0  0  0  0  0  0  0  0
   -7.8320    1.6430    1.5470 H   0  0  0  0  0  0  0  0  0  0  0  0
   -7.5010    2.7690    0.1880 H   0  0  0  0  0  0  0  0  0  0  0  0
   -9.2870    0.3180    0.2590 H   0  0  0  0  0  0  0  0  0  0  0  0
   -9.4890    1.8340   -0.6690 H   0  0  0  0  0  0  0  0  0  0  0  0
    8.5660   -1.2970    0.7620 H   0  0  0  0  0  0  0  0  0  0  0  0
    2.0830   -2.6560    1.0110 H   0  0  0  0  0  0  0  0  0  0  0  0
    0.7120   -2.9940   -1.6950 H   0  0  0  0  0  0  0  0  0  0  0  0
    0.7290   -4.2080   -0.3930 H   0  0  0  0  0  0  0  0  0  0  0  0
   -0.0960   -2.6500   -0.1470 H   0  0  0  0  0  0  0  0  0  0  0  0
    4.1760   -2.8330   -0.3090 H   0  0  0  0  0  0  0  0  0  0  0  0
    3.2080   -4.3210   -0.4430 H   0  0  0  0  0  0  0  0  0  0  0  0
    3.2220   -3.1450   -1.7790 H   0  0  0  0  0  0  0  0  0  0  0  0
   -0.5870    2.1130   -0.5120 H   0  0  0  0  0  0  0  0  0  0  0  0
   -1.7810    1.3900   -1.6170 H   0  0  0  0  0  0  0  0  0  0  0  0
   -3.5640    1.8630    0.1030 H   0  0  0  0  0  0  0  0  0  0  0  0
   -1.3380    3.4810    1.4220 H   0  0  0  0  0  0  0  0  0  0  0  0
   -3.0360    3.3920    1.9480 H   0  0  0  0  0  0  0  0  0  0  0  0
   -1.9950    1.9530    2.0560 H   0  0  0  0  0  0  0  0  0  0  0  0
   -3.1560    3.4020   -1.7980 H   0  0  0  0  0  0  0  0  0  0  0  0
   -3.6440    4.3010   -0.3410 H   0  0  0  0  0  0  0  0  0  0  0  0
   -1.9340    4.2670   -0.8350 H   0  0  0  0  0  0  0  0  0  0  0  0
    7.6470    2.4080   -1.1410 H   0  0  0  0  0  0  0  0  0  0  0  0
    9.5550    3.4670    0.0010 H   0  0  0  0  0  0  0  0  0  0  0  0
    6.6540    0.3330   -1.9160 H   0  0  0  0  0  0  0  0  0  0  0  0
    7.0370   -1.2130   -1.1220 H   0  0  0  0  0  0  0  0  0  0  0  0
    3.3550   -0.0320    0.9610 H   0  0  0  0  0  0  0  0  0  0  0  0
   -0.4330   -1.1430   -1.0690 H   0  0  0  0  0  0  0  0  0  0  0  0
   -3.7690    0.5040    1.3540 H   0  0  0  0  0  0  0  0  0  0  0  0
   -8.5870    0.1760   -2.3030 H   0  0  0  0  0  0  0  0  0  0  0  0
   -4.7090   -2.5790    3.5670 H   0  0  0  0  0  0  0  0  0  0  0  0
  1  9  2  0  0  0  0
  9 14  1  0  0  0  0
  1 24  1  0  0  0  0
 14 22  2  0  0  0  0
 19 21  1  0  0  0  0
 26 33  2  0  0  0  0
 23 24  2  0  0  0  0
 15 16  1  0  0  0  0
 22 23  1  0  0  0  0
 22 25  1  0  0  0  0
 15 17  1  0  0  0  0
 18 19  1  0  0  0  0
 19 20  1  0  0  0  0
  5 18  1  0  0  0  0
  3 15  1  0  0  0  0
  3 27  1  0  0  0  0
  3  4  1  0  0  0  0
  5 28  1  0  0  0  0
  4 28  1  0  0  0  0
  6 35  2  0  0  0  0
 26 27  1  0  0  0  0
 26 36  1  0  0  0  0
 25 36  1  0  0  0  0
  5  6  1  0  0  0  0
  4 34  2  0  0  0  0
  6 29  1  0  0  0  0
  2 31  1  0  0  0  0
  7 29  1  0  0  0  0
 11 12  1  0  0  0  0
 10 11  1  0  0  0  0
  2  7  1  0  0  0  0
 12 30  1  0  0  0  0
  7  8  1  0  0  0  0
  8 10  1  0  0  0  0
 10 13  1  0  0  0  0
 13 30  1  0  0  0  0
 13 32  2  0  0  0  0
  1 37  1  0  0  0  0
  2 38  1  0  0  0  0
  2 39  1  0  0  0  0
  3 40  1  0  0  0  0
  5 41  1  0  0  0  0
  7 42  1  0  0  0  0
  8 43  1  0  0  0  0
  8 44  1  0  0  0  0
  9 45  1  0  0  0  0
 10 46  1  0  0  0  0
 11 47  1  0  0  0  0
 11 48  1  0  0  0  0
 12 49  1  0  0  0  0
 12 50  1  0  0  0  0
 14 51  1  0  0  0  0
 15 52  1  0  0  0  0
 16 53  1  0  0  0  0
 16 54  1  0  0  0  0
 16 55  1  0  0  0  0
 17 56  1  0  0  0  0
 17 57  1  0  0  0  0
 17 58  1  0  0  0  0
 18 59  1  0  0  0  0
 18 60  1  0  0  0  0
 19 61  1  0  0  0  0
 20 62  1  0  0  0  0
 20 63  1  0  0  0  0
 20 64  1  0  0  0  0
 21 65  1  0  0  0  0
 21 66  1  0  0  0  0
 21 67  1  0  0  0  0
 23 68  1  0  0  0  0
 24 69  1  0  0  0  0
 25 70  1  0  0  0  0
 25 71  1  0  0  0  0
 27 72  1  0  0  0  0
 28 73  1  0  0  0  0
 29 74  1  0  0  0  0
 30 75  1  0  0  0  0
 31 76  1  0  0  0  0
M  END
> <OPENEYE_ISO_SMILES>
CC(C)C[C@@H](C(=O)N[C@H](C[C@@H]1CCNC1=O)CO)NC(=O)[C@H](C(C)C)NC(=O)OCc2ccccc2

> <OPENEYE_INCHI>
InChI=1S/C26H40N4O6/c1-16(2)12-21(24(33)28-20(14-31)13-19-10-11-27-23(19)32)29-25(34)22(17(3)4)30-26(35)36-15-18-8-6-5-7-9-18/h5-9,16-17,19-22,31H,10-15H2,1-4H3,(H,27,32)(H,28,33)(H,29,34)(H,30,35)/t19-,20+,21-,22-/m0/s1

> <OPENEYE_INCHIKEY>
GLZAWCKOCLSXEU-LRSLUSHPSA-N

> <FORMULA>
C26H40N4O6

$$$$
