8T6
  -OEChem-02242320013D

 63 65  0     1  0  0  0  0  0999 V2000
   -4.4520   -1.2210   -1.0390 C   0  0  0  0  0  0  0  0  0  0  0  0
    1.0700    2.6890   -0.1080 C   0  0  0  0  0  0  0  0  0  0  0  0
   -1.3330    2.2150   -0.6030 C   0  0  0  0  0  0  0  0  0  0  0  0
   -1.9900   -0.7480   -0.8470 C   0  0  0  0  0  0  0  0  0  0  0  0
    0.1080    3.3020   -2.3310 C   0  0  0  0  0  0  0  0  0  0  0  0
    0.3590   -0.1390   -0.6240 C   0  0  2  0  0  0  0  0  0  0  0  0
    1.2990    0.2320    0.4940 C   0  0  0  0  0  0  0  0  0  0  0  0
    3.5390    0.6740    1.3470 C   0  0  1  0  0  0  0  0  0  0  0  0
    4.9310    0.1140    1.0480 C   0  0  0  0  0  0  0  0  0  0  0  0
   -5.6090   -0.9440   -0.2710 C   0  0  0  0  0  0  0  0  0  0  0  0
    4.8790   -1.4150    1.0550 C   0  0  2  0  0  0  0  0  0  0  0  0
    6.2820   -2.0060    0.7860 C   0  0  0  0  0  0  0  0  0  0  0  0
    6.2470   -2.2170   -0.7440 C   0  0  0  0  0  0  0  0  0  0  0  0
    4.0370   -1.9210   -0.0960 C   0  0  0  0  0  0  0  0  0  0  0  0
   -5.1860   -0.2200    0.8620 C   0  0  0  0  0  0  0  0  0  0  0  0
   -3.3860   -0.6840   -0.3900 C   0  0  0  0  0  0  0  0  0  0  0  0
    0.4610    0.9000   -1.7420 C   0  0  0  0  0  0  0  0  0  0  0  0
   -6.1270    0.1890    1.8030 C   0  0  0  0  0  0  0  0  0  0  0  0
   -7.4570   -0.1170    1.6190 C   0  0  0  0  0  0  0  0  0  0  0  0
   -7.8710   -0.8310    0.5010 C   0  0  0  0  0  0  0  0  0  0  0  0
   -6.9680   -1.2410   -0.4350 C   0  0  0  0  0  0  0  0  0  0  0  0
    3.6160    2.1970    1.4640 C   0  0  0  0  0  0  0  0  0  0  0  0
    0.0760    2.2760   -1.1960 C   0  0  0  0  0  0  0  0  0  0  0  0
   -3.8220   -0.0720    0.7690 N   0  0  0  0  0  0  0  0  0  0  0  0
   -1.0140   -0.1760   -0.1140 N   0  0  0  0  0  0  0  0  0  0  0  0
    2.6250    0.3130    0.2610 N   0  0  0  0  0  0  0  0  0  0  0  0
    4.8280   -2.3680   -1.0860 N   0  0  0  0  0  0  0  0  0  0  0  0
    2.8240   -1.9220   -0.1210 O   0  0  0  0  0  0  0  0  0  0  0  0
   -1.7150   -1.3180   -1.8860 O   0  0  0  0  0  0  0  0  0  0  0  0
    0.8640    0.4590    1.6030 O   0  0  0  0  0  0  0  0  0  0  0  0
    4.2050    2.7370    0.2790 O   0  0  0  0  0  0  0  0  0  0  0  0
   -4.4230   -1.7650   -1.9720 H   0  0  0  0  0  0  0  0  0  0  0  0
    1.0060    3.7650    0.0530 H   0  0  0  0  0  0  0  0  0  0  0  0
    0.8310    2.1680    0.8190 H   0  0  0  0  0  0  0  0  0  0  0  0
    2.0810    2.4280   -0.4210 H   0  0  0  0  0  0  0  0  0  0  0  0
   -1.7480    3.2210   -0.5480 H   0  0  0  0  0  0  0  0  0  0  0  0
   -1.9670    1.5950   -1.2370 H   0  0  0  0  0  0  0  0  0  0  0  0
   -1.2870    1.7850    0.3970 H   0  0  0  0  0  0  0  0  0  0  0  0
    1.1120    3.3460   -2.7530 H   0  0  0  0  0  0  0  0  0  0  0  0
   -0.6000    3.0080   -3.1060 H   0  0  0  0  0  0  0  0  0  0  0  0
   -0.1660    4.2830   -1.9420 H   0  0  0  0  0  0  0  0  0  0  0  0
    0.6280   -1.1210   -1.0140 H   0  0  0  0  0  0  0  0  0  0  0  0
    3.1720    0.2550    2.2840 H   0  0  0  0  0  0  0  0  0  0  0  0
    5.2610    0.4620    0.0690 H   0  0  0  0  0  0  0  0  0  0  0  0
    5.6310    0.4570    1.8100 H   0  0  0  0  0  0  0  0  0  0  0  0
    4.4850   -1.7780    2.0040 H   0  0  0  0  0  0  0  0  0  0  0  0
    7.0630   -1.2980    1.0640 H   0  0  0  0  0  0  0  0  0  0  0  0
    6.4130   -2.9540    1.3080 H   0  0  0  0  0  0  0  0  0  0  0  0
    6.6680   -1.3510   -1.2540 H   0  0  0  0  0  0  0  0  0  0  0  0
    6.7980   -3.1180   -1.0130 H   0  0  0  0  0  0  0  0  0  0  0  0
    1.4830    0.9300   -2.1180 H   0  0  0  0  0  0  0  0  0  0  0  0
   -0.2160    0.6290   -2.5530 H   0  0  0  0  0  0  0  0  0  0  0  0
   -5.8150    0.7430    2.6750 H   0  0  0  0  0  0  0  0  0  0  0  0
   -8.1850    0.2010    2.3500 H   0  0  0  0  0  0  0  0  0  0  0  0
   -8.9180   -1.0620    0.3720 H   0  0  0  0  0  0  0  0  0  0  0  0
   -7.2990   -1.7950   -1.3010 H   0  0  0  0  0  0  0  0  0  0  0  0
    2.6120    2.6030    1.5880 H   0  0  0  0  0  0  0  0  0  0  0  0
    4.2250    2.4650    2.3270 H   0  0  0  0  0  0  0  0  0  0  0  0
   -3.2590    0.3870    1.4120 H   0  0  0  0  0  0  0  0  0  0  0  0
   -1.2210    0.2130    0.7500 H   0  0  0  0  0  0  0  0  0  0  0  0
    2.9730    0.1320   -0.6260 H   0  0  0  0  0  0  0  0  0  0  0  0
    4.5020   -2.7430   -1.9190 H   0  0  0  0  0  0  0  0  0  0  0  0
    4.2850    3.7000    0.2830 H   0  0  0  0  0  0  0  0  0  0  0  0
 20 21  2  0  0  0  0
 10 21  1  0  0  0  0
 19 20  1  0  0  0  0
  1 10  1  0  0  0  0
 10 15  2  0  0  0  0
 18 19  2  0  0  0  0
  1 16  2  0  0  0  0
 15 18  1  0  0  0  0
 15 24  1  0  0  0  0
  5 23  1  0  0  0  0
  7 30  2  0  0  0  0
 16 24  1  0  0  0  0
  4 16  1  0  0  0  0
  4 25  1  0  0  0  0
  6 25  1  0  0  0  0
 17 23  1  0  0  0  0
  6 17  1  0  0  0  0
  2 23  1  0  0  0  0
  3 23  1  0  0  0  0
  4 29  2  0  0  0  0
  6  7  1  0  0  0  0
  7 26  1  0  0  0  0
 12 13  1  0  0  0  0
 11 12  1  0  0  0  0
 13 27  1  0  0  0  0
  8 26  1  0  0  0  0
  8 22  1  0  0  0  0
  8  9  1  0  0  0  0
 22 31  1  0  0  0  0
  9 11  1  0  0  0  0
 11 14  1  0  0  0  0
 14 27  1  0  0  0  0
 14 28  2  0  0  0  0
  1 32  1  0  0  0  0
  2 33  1  0  0  0  0
  2 34  1  0  0  0  0
  2 35  1  0  0  0  0
  3 36  1  0  0  0  0
  3 37  1  0  0  0  0
  3 38  1  0  0  0  0
  5 39  1  0  0  0  0
  5 40  1  0  0  0  0
  5 41  1  0  0  0  0
  6 42  1  0  0  0  0
  8 43  1  0  0  0  0
  9 44  1  0  0  0  0
  9 45  1  0  0  0  0
 11 46  1  0  0  0  0
 12 47  1  0  0  0  0
 12 48  1  0  0  0  0
 13 49  1  0  0  0  0
 13 50  1  0  0  0  0
 17 51  1  0  0  0  0
 17 52  1  0  0  0  0
 18 53  1  0  0  0  0
 19 54  1  0  0  0  0
 20 55  1  0  0  0  0
 21 56  1  0  0  0  0
 22 57  1  0  0  0  0
 22 58  1  0  0  0  0
 24 59  1  0  0  0  0
 25 60  1  0  0  0  0
 26 61  1  0  0  0  0
 27 62  1  0  0  0  0
 31 63  1  0  0  0  0
M  END
> <OPENEYE_ISO_SMILES>
CC(C)(C)C[C@@H](C(=O)N[C@@H](C[C@@H]1CCNC1=O)CO)NC(=O)c2cc3ccccc3[nH]2

> <OPENEYE_INCHI>
InChI=1S/C23H32N4O4/c1-23(2,3)12-19(22(31)25-16(13-28)10-15-8-9-24-20(15)29)27-21(30)18-11-14-6-4-5-7-17(14)26-18/h4-7,11,15-16,19,26,28H,8-10,12-13H2,1-3H3,(H,24,29)(H,25,31)(H,27,30)/t15-,16-,19-/m0/s1

> <OPENEYE_INCHIKEY>
NTWWMUUWHMIXJV-BXWFABGCSA-N

> <FORMULA>
C23H32N4O4

$$$$
