MGP
  -OEChem-02242320033D

 52 54  0     1  0  0  0  0  0999 V2000
   -2.4270    1.1240   -1.1460 P   0  0  1  0  0  0  0  0  0  0  0  0
   -2.0770    0.5850   -2.6220 O   0  0  0  0  0  0  0  0  0  0  0  0
   -3.0780    2.4500   -1.2460 O   0  0  0  0  0  0  0  0  0  0  0  0
   -3.4240    0.0900   -0.4190 O   0  0  0  0  0  0  0  0  0  0  0  0
   -1.0710    1.2560   -0.2870 O   0  0  0  0  0  0  0  0  0  0  0  0
   -4.9920   -0.2450   -0.5690 P   0  0  2  0  0  0  0  0  0  0  0  0
   -5.2150   -1.2080   -1.8400 O   0  0  0  0  0  0  0  0  0  0  0  0
   -5.7490    1.0120   -0.7640 O   0  0  0  0  0  0  0  0  0  0  0  0
   -5.5130   -0.9840    0.7630 O   0  0  0  0  0  0  0  0  0  0  0  0
   -6.9700   -1.2980    1.3710 P   0  0  0  0  0  0  0  0  0  0  0  0
   -6.8420   -1.5920    2.9480 O   0  0  0  0  0  0  0  0  0  0  0  0
   -7.8550   -0.1310    1.1580 O   0  0  0  0  0  0  0  0  0  0  0  0
   -7.5940   -2.5860    0.6330 O   0  0  0  0  0  0  0  0  0  0  0  0
   -0.0290    2.1770   -0.6150 C   0  0  0  0  0  0  0  0  0  0  0  0
    1.1080    2.0420    0.4000 C   0  0  1  0  0  0  0  0  0  0  0  0
    1.7310    0.7530    0.2680 O   0  0  0  0  0  0  0  0  0  0  0  0
    2.1890    3.1040    0.1200 C   0  0  1  0  0  0  0  0  0  0  0  0
    2.3530    3.9610    1.2510 O   0  0  0  0  0  0  0  0  0  0  0  0
    3.4760    2.2790   -0.1270 C   0  0  1  0  0  0  0  0  0  0  0  0
    4.6040    2.8960    0.4970 O   0  0  0  0  0  0  0  0  0  0  0  0
    3.1340    0.9310    0.5580 C   0  0  2  0  0  0  0  0  0  0  0  0
    3.9230   -0.1570   -0.0240 N   0  0  0  0  0  0  0  0  0  0  0  0
    3.5620   -0.9400   -1.0820 C   0  0  0  0  0  0  0  0  0  0  0  0
    4.5010   -1.8060   -1.3310 N   0  3  0  0  0  0  0  0  0  0  0  0
    4.4650   -2.8110   -2.3960 C   0  0  0  0  0  0  0  0  0  0  0  0
    5.5170   -1.6310   -0.4510 C   0  0  0  0  0  0  0  0  0  0  0  0
    6.7650   -2.2660   -0.2490 C   0  0  0  0  0  0  0  0  0  0  0  0
    7.1180   -3.1900   -0.9610 O   0  0  0  0  0  0  0  0  0  0  0  0
    7.5550   -1.8230    0.7540 N   0  0  0  0  0  0  0  0  0  0  0  0
    7.1500   -0.7890    1.5440 C   0  0  0  0  0  0  0  0  0  0  0  0
    7.9730   -0.3590    2.5540 N   0  0  0  0  0  0  0  0  0  0  0  0
    5.9930   -0.1910    1.3660 N   0  0  0  0  0  0  0  0  0  0  0  0
    5.1600   -0.5720    0.3910 C   0  0  0  0  0  0  0  0  0  0  0  0
    0.3480    1.9580   -1.6140 H   0  0  0  0  0  0  0  0  0  0  0  0
   -0.4210    3.1930   -0.5880 H   0  0  0  0  0  0  0  0  0  0  0  0
    0.7190    2.1640    1.4110 H   0  0  0  0  0  0  0  0  0  0  0  0
    1.9320    3.6860   -0.7650 H   0  0  0  0  0  0  0  0  0  0  0  0
    3.0220    4.6490    1.1300 H   0  0  0  0  0  0  0  0  0  0  0  0
    3.6510    2.1410   -1.1940 H   0  0  0  0  0  0  0  0  0  0  0  0
    4.8020    3.7820    0.1640 H   0  0  0  0  0  0  0  0  0  0  0  0
    3.2990    0.9940    1.6330 H   0  0  0  0  0  0  0  0  0  0  0  0
    2.6360   -0.8540   -1.6310 H   0  0  0  0  0  0  0  0  0  0  0  0
    4.9000   -2.3940   -3.3040 H   0  0  0  0  0  0  0  0  0  0  0  0
    5.0370   -3.6870   -2.0880 H   0  0  0  0  0  0  0  0  0  0  0  0
    3.4320   -3.1010   -2.5880 H   0  0  0  0  0  0  0  0  0  0  0  0
    8.4150   -2.2430    0.9120 H   0  0  0  0  0  0  0  0  0  0  0  0
    8.8300   -0.7900    2.6970 H   0  0  0  0  0  0  0  0  0  0  0  0
    7.6990    0.3750    3.1240 H   0  0  0  0  0  0  0  0  0  0  0  0
   -1.6480   -0.2810   -2.6320 H   0  0  0  0  0  0  0  0  0  0  0  0
   -4.7470   -2.0520   -1.7810 H   0  0  0  0  0  0  0  0  0  0  0  0
   -7.6830   -1.7890    3.3820 H   0  0  0  0  0  0  0  0  0  0  0  0
   -7.0650   -3.3890    0.7310 H   0  0  0  0  0  0  0  0  0  0  0  0
  1  2  1  0  0  0  0
  1  3  2  0  0  0  0
  1  4  1  0  0  0  0
  1  5  1  0  0  0  0
  4  6  1  0  0  0  0
  5 14  1  0  0  0  0
  6  7  1  0  0  0  0
  6  8  2  0  0  0  0
  6  9  1  0  0  0  0
  9 10  1  0  0  0  0
 10 11  1  0  0  0  0
 10 12  2  0  0  0  0
 10 13  1  0  0  0  0
 14 15  1  0  0  0  0
 14 34  1  0  0  0  0
 14 35  1  0  0  0  0
 15 16  1  0  0  0  0
 15 17  1  0  0  0  0
 15 36  1  0  0  0  0
 16 21  1  0  0  0  0
 17 18  1  0  0  0  0
 17 19  1  0  0  0  0
 17 37  1  0  0  0  0
 18 38  1  0  0  0  0
 19 20  1  0  0  0  0
 19 21  1  0  0  0  0
 19 39  1  0  0  0  0
 20 40  1  0  0  0  0
 21 22  1  0  0  0  0
 21 41  1  0  0  0  0
 22 23  1  0  0  0  0
 22 33  1  0  0  0  0
 23 24  2  0  0  0  0
 23 42  1  0  0  0  0
 24 25  1  0  0  0  0
 24 26  1  0  0  0  0
 25 43  1  0  0  0  0
 25 44  1  0  0  0  0
 25 45  1  0  0  0  0
 26 27  1  0  0  0  0
 26 33  2  0  0  0  0
 27 28  2  0  0  0  0
 27 29  1  0  0  0  0
 29 30  1  0  0  0  0
 29 46  1  0  0  0  0
 30 31  1  0  0  0  0
 30 32  2  0  0  0  0
 31 47  1  0  0  0  0
 31 48  1  0  0  0  0
 32 33  1  0  0  0  0
  2 49  1  0  0  0  0
  7 50  1  0  0  0  0
 11 51  1  0  0  0  0
 13 52  1  0  0  0  0
M  CHG  1  24   1
M  END
> <OPENEYE_ISO_SMILES>
C[n+]1cn(c2c1c(=O)[nH]c(n2)N)[C@H]3[C@@H]([C@@H]([C@H](O3)CO[P@@](=O)(O)O[P@@](=O)(O)OP(=O)(O)O)O)O

> <OPENEYE_INCHI>
InChI=1S/C11H18N5O14P3/c1-15-3-16(8-5(15)9(19)14-11(12)13-8)10-7(18)6(17)4(28-10)2-27-32(23,24)30-33(25,26)29-31(20,21)22/h3-4,6-7,10,17-18H,2H2,1H3,(H6-,12,13,14,19,20,21,22,23,24,25,26)/p+1/t4-,6-,7-,10-/m1/s1

> <OPENEYE_INCHIKEY>
DKVRNHPCAOHRSI-KQYNXXCUSA-O

> <FORMULA>
C11H19N5O14P3+

$$$$
