SAH
  -OEChem-02242320043D

 46 48  0     1  0  0  0  0  0999 V2000
    0.6630    0.7420    6.8430 N   0  0  0  0  0  0  0  0  0  0  0  0
   -0.6680    0.5580    6.2510 C   0  0  1  0  0  0  0  0  0  0  0  0
   -0.5530   -0.3150    5.0000 C   0  0  0  0  0  0  0  0  0  0  0  0
    0.3650    0.3650    3.9850 C   0  0  0  0  0  0  0  0  0  0  0  0
    0.5010   -0.6690    2.5010 S   0  0  0  0  0  0  0  0  0  0  0  0
   -1.5730   -0.1120    7.2510 C   0  0  0  0  0  0  0  0  0  0  0  0
   -1.1120   -0.8720    8.0700 O   0  0  0  0  0  0  0  0  0  0  0  0
   -2.8930    0.1320    7.2320 O   0  0  0  0  0  0  0  0  0  0  0  0
    1.6160    0.3540    1.5030 C   0  0  0  0  0  0  0  0  0  0  0  0
    1.8830   -0.3370    0.1640 C   0  0  1  0  0  0  0  0  0  0  0  0
    0.6520   -0.4860   -0.5610 O   0  0  0  0  0  0  0  0  0  0  0  0
    2.8240    0.5290   -0.6940 C   0  0  1  0  0  0  0  0  0  0  0  0
    4.0260   -0.1790   -1.0010 O   0  0  0  0  0  0  0  0  0  0  0  0
    2.0090    0.8000   -1.9860 C   0  0  1  0  0  0  0  0  0  0  0  0
    2.8440    0.7100   -3.1430 O   0  0  0  0  0  0  0  0  0  0  0  0
    0.9700   -0.3490   -1.9630 C   0  0  2  0  0  0  0  0  0  0  0  0
   -0.2230    0.0140   -2.7300 N   0  0  0  0  0  0  0  0  0  0  0  0
   -1.2970    0.7150   -2.2670 C   0  0  0  0  0  0  0  0  0  0  0  0
   -2.1760    0.8590   -3.2150 N   0  0  0  0  0  0  0  0  0  0  0  0
   -1.7240    0.2610   -4.3440 C   0  0  0  0  0  0  0  0  0  0  0  0
   -2.2280    0.0980   -5.6450 C   0  0  0  0  0  0  0  0  0  0  0  0
   -3.4620    0.6170   -5.9970 N   0  0  0  0  0  0  0  0  0  0  0  0
   -1.4930   -0.5660   -6.5310 N   0  0  0  0  0  0  0  0  0  0  0  0
   -0.3140   -1.0650   -6.2040 C   0  0  0  0  0  0  0  0  0  0  0  0
    0.1960   -0.9360   -4.9980 N   0  0  0  0  0  0  0  0  0  0  0  0
   -0.4630   -0.2830   -4.0480 C   0  0  0  0  0  0  0  0  0  0  0  0
    1.2600    1.0960    6.1100 H   0  0  0  0  0  0  0  0  0  0  0  0
    1.0060   -0.1760    7.0770 H   0  0  0  0  0  0  0  0  0  0  0  0
   -1.0820    1.5280    5.9790 H   0  0  0  0  0  0  0  0  0  0  0  0
   -0.1390   -1.2860    5.2720 H   0  0  0  0  0  0  0  0  0  0  0  0
   -1.5410   -0.4520    4.5610 H   0  0  0  0  0  0  0  0  0  0  0  0
   -0.0480    1.3360    3.7130 H   0  0  0  0  0  0  0  0  0  0  0  0
    1.3540    0.5020    4.4240 H   0  0  0  0  0  0  0  0  0  0  0  0
   -3.4740   -0.2970    7.8740 H   0  0  0  0  0  0  0  0  0  0  0  0
    1.1550    1.3250    1.3240 H   0  0  0  0  0  0  0  0  0  0  0  0
    2.5570    0.4910    2.0350 H   0  0  0  0  0  0  0  0  0  0  0  0
    2.3330   -1.3150    0.3360 H   0  0  0  0  0  0  0  0  0  0  0  0
    3.0520    1.4640   -0.1840 H   0  0  0  0  0  0  0  0  0  0  0  0
    4.5440    0.3890   -1.5870 H   0  0  0  0  0  0  0  0  0  0  0  0
    1.5160    1.7710   -1.9400 H   0  0  0  0  0  0  0  0  0  0  0  0
    3.4650    1.4490   -3.0980 H   0  0  0  0  0  0  0  0  0  0  0  0
    1.4070   -1.2690   -2.3490 H   0  0  0  0  0  0  0  0  0  0  0  0
   -1.4020    1.0950   -1.2620 H   0  0  0  0  0  0  0  0  0  0  0  0
   -3.7990    0.4980   -6.8990 H   0  0  0  0  0  0  0  0  0  0  0  0
   -3.9890    1.1010   -5.3430 H   0  0  0  0  0  0  0  0  0  0  0  0
    0.2500   -1.5980   -6.9540 H   0  0  0  0  0  0  0  0  0  0  0  0
  1  2  1  0  0  0  0
  1 27  1  0  0  0  0
  1 28  1  0  0  0  0
  2  3  1  0  0  0  0
  2  6  1  0  0  0  0
  2 29  1  0  0  0  0
  3  4  1  0  0  0  0
  3 30  1  0  0  0  0
  3 31  1  0  0  0  0
  4  5  1  0  0  0  0
  4 32  1  0  0  0  0
  4 33  1  0  0  0  0
  5  9  1  0  0  0  0
  6  7  2  0  0  0  0
  6  8  1  0  0  0  0
  8 34  1  0  0  0  0
  9 10  1  0  0  0  0
  9 35  1  0  0  0  0
  9 36  1  0  0  0  0
 10 11  1  0  0  0  0
 10 12  1  0  0  0  0
 10 37  1  0  0  0  0
 11 16  1  0  0  0  0
 12 13  1  0  0  0  0
 12 14  1  0  0  0  0
 12 38  1  0  0  0  0
 13 39  1  0  0  0  0
 14 15  1  0  0  0  0
 14 16  1  0  0  0  0
 14 40  1  0  0  0  0
 15 41  1  0  0  0  0
 16 17  1  0  0  0  0
 16 42  1  0  0  0  0
 17 18  1  0  0  0  0
 17 26  1  0  0  0  0
 18 19  2  0  0  0  0
 18 43  1  0  0  0  0
 19 20  1  0  0  0  0
 20 21  1  0  0  0  0
 20 26  2  0  0  0  0
 21 22  1  0  0  0  0
 21 23  2  0  0  0  0
 22 44  1  0  0  0  0
 22 45  1  0  0  0  0
 23 24  1  0  0  0  0
 24 25  2  0  0  0  0
 24 46  1  0  0  0  0
 25 26  1  0  0  0  0
M  END
> <OPENEYE_ISO_SMILES>
c1nc(c2c(n1)n(cn2)[C@H]3[C@@H]([C@@H]([C@H](O3)CSCC[C@@H](C(=O)O)N)O)O)N

> <OPENEYE_INCHI>
InChI=1S/C14H20N6O5S/c15-6(14(23)24)1-2-26-3-7-9(21)10(22)13(25-7)20-5-19-8-11(16)17-4-18-12(8)20/h4-7,9-10,13,21-22H,1-3,15H2,(H,23,24)(H2,16,17,18)/t6-,7+,9+,10+,13+/m0/s1

> <OPENEYE_INCHIKEY>
ZJUKTBDSGOFHSH-WFMPWKQPSA-N

> <FORMULA>
C14H20N6O5S

$$$$
