V9G
  -OEChem-02242320043D

 84 89  0     1  0  0  0  0  0999 V2000
   85.0910  -31.6600   41.8040 C   0  0  0  0  0  0  0  0  0  0  0  0
   84.0400  -29.5960   40.9430 N   0  0  0  0  0  0  0  0  0  0  0  0
   83.3020  -30.0030   39.7230 C   0  0  0  0  0  0  0  0  0  0  0  0
   83.9350  -28.1790   41.2430 C   0  0  0  0  0  0  0  0  0  0  0  0
   85.2630  -29.4330   42.7580 C   0  0  0  0  0  0  0  0  0  0  0  0
   86.3330  -31.2140   43.7490 C   0  0  0  0  0  0  0  0  0  0  0  0
   86.3320  -26.3860   42.8730 C   0  0  2  0  0  0  0  0  0  0  0  0
   86.0600  -25.3370   41.8180 C   0  0  1  0  0  0  0  0  0  0  0  0
   84.6810  -24.8410   42.2150 C   0  0  1  0  0  0  0  0  0  0  0  0
   83.9380  -24.2100   41.0460 C   0  0  0  0  0  0  0  0  0  0  0  0
   86.4030  -25.5790   33.3710 C   0  0  0  0  0  0  0  0  0  0  0  0
   86.5380  -24.5060   32.3200 C   0  0  2  0  0  0  0  0  0  0  0  0
   87.9870  -24.2560   31.9650 C   0  0  2  0  0  0  0  0  0  0  0  0
   87.9410  -22.8440   31.4470 C   0  0  2  0  0  0  0  0  0  0  0  0
   86.8350  -22.2130   32.2810 C   0  0  2  0  0  0  0  0  0  0  0  0
   87.8660  -22.0500   34.5580 C   0  0  0  0  0  0  0  0  0  0  0  0
   88.5300  -19.9680   34.5620 C   0  0  0  0  0  0  0  0  0  0  0  0
   89.0320  -18.6870   34.7920 C   0  0  0  0  0  0  0  0  0  0  0  0
   84.7850  -30.3090   41.7900 C   0  0  0  0  0  0  0  0  0  0  0  0
   88.3170  -18.0120   32.6610 C   0  0  0  0  0  0  0  0  0  0  0  0
   87.9210  -20.2340   33.3530 C   0  0  0  0  0  0  0  0  0  0  0  0
   88.7400  -22.2100   29.2700 C   0  0  0  0  0  0  0  0  0  0  0  0
   84.9540  -26.9610   43.1530 C   0  0  2  0  0  0  0  0  0  0  0  0
   87.1180  -31.6770   44.7380 N   0  0  0  0  0  0  0  0  0  0  0  0
   84.7690  -28.2470   42.4320 N   0  4  0  0  0  0  0  0  0  0  0  0
   86.0400  -29.8940   43.7450 N   0  0  0  0  0  0  0  0  0  0  0  0
   85.8770  -32.0890   42.8020 N   0  0  0  0  0  0  0  0  0  0  0  0
   87.5120  -21.5090   33.3860 N   0  0  0  0  0  0  0  0  0  0  0  0
   84.6790  -32.4550   40.9460 O   0  0  0  0  0  0  0  0  0  0  0  0
   87.0380  -24.3000   41.7990 O   0  0  0  0  0  0  0  0  0  0  0  0
   83.9870  -25.9820   42.7490 O   0  0  0  0  0  0  0  0  0  0  0  0
   86.8660  -25.8050   44.0710 O   0  0  0  0  0  0  0  0  0  0  0  0
   87.5080  -27.4930   35.6130 O   0  0  0  0  0  0  0  0  0  0  0  0
   87.1900  -26.0350   35.8190 P   0  0  1  0  0  0  0  0  0  0  0  0
   88.1940  -25.3860   36.7280 O   0  0  0  0  0  0  0  0  0  0  0  0
   87.2750  -25.2500   34.4350 O   0  0  0  0  0  0  0  0  0  0  0  0
   88.4800  -25.2040   31.0250 O   0  0  0  0  0  0  0  0  0  0  0  0
   87.6570  -22.7680   30.0420 O   0  0  0  0  0  0  0  0  0  0  0  0
   88.4910  -21.1060   35.2910 N   0  0  0  0  0  0  0  0  0  0  0  0
   89.6350  -18.3990   35.9700 N   0  0  0  0  0  0  0  0  0  0  0  0
   88.9140  -17.7300   33.8310 N   0  0  0  0  0  0  0  0  0  0  0  0
   87.8260  -19.2430   32.4240 N   0  0  0  0  0  0  0  0  0  0  0  0
   86.0210  -23.2590   32.7960 O   0  0  0  0  0  0  0  0  0  0  0  0
   85.6850  -25.9160   36.3620 O   0  0  0  0  0  0  0  0  0  0  0  0
   85.0680  -26.8580   37.5010 P   0  0  2  0  0  0  0  0  0  0  0  0
   85.9310  -26.7530   38.7180 O   0  0  0  0  0  0  0  0  0  0  0  0
   84.9350  -28.2990   37.0640 O   0  0  0  0  0  0  0  0  0  0  0  0
   83.6080  -26.2540   37.7820 O   0  0  0  0  0  0  0  0  0  0  0  0
   83.3620  -24.8670   38.5670 P   0  0  1  0  0  0  0  0  0  0  0  0
   84.3870  -23.8150   38.2470 O   0  0  0  0  0  0  0  0  0  0  0  0
   81.9620  -24.3920   38.2570 O   0  0  0  0  0  0  0  0  0  0  0  0
   83.4960  -25.2090   40.1300 O   0  0  0  0  0  0  0  0  0  0  0  0
   83.4280  -31.0840   39.5610 H   0  0  0  0  0  0  0  0  0  0  0  0
   82.2340  -29.7730   39.8470 H   0  0  0  0  0  0  0  0  0  0  0  0
   83.6970  -29.4540   38.8550 H   0  0  0  0  0  0  0  0  0  0  0  0
   83.4200  -27.3640   40.7560 H   0  0  0  0  0  0  0  0  0  0  0  0
   86.9960  -27.1670   42.4730 H   0  0  0  0  0  0  0  0  0  0  0  0
   85.9980  -25.8230   40.8330 H   0  0  0  0  0  0  0  0  0  0  0  0
   84.7980  -24.0810   43.0020 H   0  0  0  0  0  0  0  0  0  0  0  0
   84.6110  -23.5140   40.5240 H   0  0  0  0  0  0  0  0  0  0  0  0
   83.0660  -23.6590   41.4280 H   0  0  0  0  0  0  0  0  0  0  0  0
   85.3660  -25.6190   33.7350 H   0  0  0  0  0  0  0  0  0  0  0  0
   86.6800  -26.5560   32.9470 H   0  0  0  0  0  0  0  0  0  0  0  0
   85.9970  -24.8190   31.4150 H   0  0  0  0  0  0  0  0  0  0  0  0
   88.5900  -24.2830   32.8840 H   0  0  0  0  0  0  0  0  0  0  0  0
   88.8930  -22.3420   31.6720 H   0  0  0  0  0  0  0  0  0  0  0  0
   86.2520  -21.5100   31.6680 H   0  0  0  0  0  0  0  0  0  0  0  0
   87.6820  -23.0690   34.8650 H   0  0  0  0  0  0  0  0  0  0  0  0
   88.2300  -17.2460   31.9050 H   0  0  0  0  0  0  0  0  0  0  0  0
   88.4570  -22.1810   28.2070 H   0  0  0  0  0  0  0  0  0  0  0  0
   88.9520  -21.1890   29.6210 H   0  0  0  0  0  0  0  0  0  0  0  0
   89.6370  -22.8340   29.3930 H   0  0  0  0  0  0  0  0  0  0  0  0
   84.8650  -27.1430   44.2340 H   0  0  0  0  0  0  0  0  0  0  0  0
   87.4630  -31.0510   45.4370 H   0  0  0  0  0  0  0  0  0  0  0  0
   87.3560  -32.6470   44.7740 H   0  0  0  0  0  0  0  0  0  0  0  0
   86.1310  -33.0550   42.8540 H   0  0  0  0  0  0  0  0  0  0  0  0
   87.8790  -24.6620   41.5460 H   0  0  0  0  0  0  0  0  0  0  0  0
   87.0250  -26.4890   44.7110 H   0  0  0  0  0  0  0  0  0  0  0  0
   88.8400  -26.0290   36.9980 H   0  0  0  0  0  0  0  0  0  0  0  0
   88.4810  -26.0690   31.4180 H   0  0  0  0  0  0  0  0  0  0  0  0
   89.9330  -17.4450   35.9680 H   0  0  0  0  0  0  0  0  0  0  0  0
   88.9890  -18.5440   36.7190 H   0  0  0  0  0  0  0  0  0  0  0  0
   86.2250  -27.6190   38.9740 H   0  0  0  0  0  0  0  0  0  0  0  0
   81.9960  -23.5070   37.9140 H   0  0  0  0  0  0  0  0  0  0  0  0
 22 38  1  0  0  0  0
 14 38  1  0  0  0  0
 13 37  1  0  0  0  0
 13 14  1  0  0  0  0
 14 15  1  0  0  0  0
 12 13  1  0  0  0  0
 15 43  1  0  0  0  0
 15 28  1  0  0  0  0
 12 43  1  0  0  0  0
 11 12  1  0  0  0  0
 20 42  2  0  0  0  0
 21 42  1  0  0  0  0
 20 41  1  0  0  0  0
 21 28  1  0  0  0  0
 17 21  2  0  0  0  0
 11 36  1  0  0  0  0
 16 28  1  0  0  0  0
 18 41  2  0  0  0  0
 34 36  1  0  0  0  0
 16 39  2  0  0  0  0
 17 18  1  0  0  0  0
 17 39  1  0  0  0  0
 18 40  1  0  0  0  0
 33 34  2  0  0  0  0
 34 44  1  0  0  0  0
 34 35  1  0  0  0  0
 44 45  1  0  0  0  0
 45 47  2  0  0  0  0
 45 48  1  0  0  0  0
 45 46  1  0  0  0  0
 48 49  1  0  0  0  0
 49 50  2  0  0  0  0
 49 51  1  0  0  0  0
 49 52  1  0  0  0  0
  2  3  1  0  0  0  0
 10 52  1  0  0  0  0
  2  4  1  0  0  0  0
  2 19  1  0  0  0  0
  1 29  2  0  0  0  0
  9 10  1  0  0  0  0
  4 25  2  0  0  0  0
  1 19  1  0  0  0  0
  5 19  2  0  0  0  0
  8 30  1  0  0  0  0
  1 27  1  0  0  0  0
  8  9  1  0  0  0  0
  7  8  1  0  0  0  0
  9 31  1  0  0  0  0
  5 25  1  0  0  0  0
 23 25  1  0  0  0  0
 23 31  1  0  0  0  0
  5 26  1  0  0  0  0
  6 27  1  0  0  0  0
  7 23  1  0  0  0  0
  7 32  1  0  0  0  0
  6 26  2  0  0  0  0
  6 24  1  0  0  0  0
  3 53  1  0  0  0  0
  3 54  1  0  0  0  0
  3 55  1  0  0  0  0
  4 56  1  0  0  0  0
  7 57  1  0  0  0  0
  8 58  1  0  0  0  0
  9 59  1  0  0  0  0
 10 60  1  0  0  0  0
 10 61  1  0  0  0  0
 11 62  1  0  0  0  0
 11 63  1  0  0  0  0
 12 64  1  0  0  0  0
 13 65  1  0  0  0  0
 14 66  1  0  0  0  0
 15 67  1  0  0  0  0
 16 68  1  0  0  0  0
 20 69  1  0  0  0  0
 22 70  1  0  0  0  0
 22 71  1  0  0  0  0
 22 72  1  0  0  0  0
 23 73  1  0  0  0  0
 24 74  1  0  0  0  0
 24 75  1  0  0  0  0
 27 76  1  0  0  0  0
 30 77  1  0  0  0  0
 32 78  1  0  0  0  0
 35 79  1  0  0  0  0
 37 80  1  0  0  0  0
 40 81  1  0  0  0  0
 40 82  1  0  0  0  0
 46 83  1  0  0  0  0
 51 84  1  0  0  0  0
M  RAD  1  25   2
M  END
> <OPENEYE_ISO_SMILES>
CN1C=[N](c2c1c(=O)[nH]c(n2)N)[C@H]3[C@@H]([C@@H]([C@H](O3)CO[P@](=O)(O)O[P@](=O)(O)O[P@](=O)(O)OC[C@@H]4[C@H]([C@H]([C@@H](O4)n5cnc6c5ncnc6N)OC)O)O)O

> <OPENEYE_INCHI>
InChI=1S/C22H32N10O17P3/c1-30-7-32(18-11(30)19(36)29-22(24)28-18)20-14(35)12(33)8(46-20)3-44-50(37,38)48-52(41,42)49-51(39,40)45-4-9-13(34)15(43-2)21(47-9)31-6-27-10-16(23)25-5-26-17(10)31/h5-9,12-15,20-21,33-35H,3-4H2,1-2H3,(H,37,38)(H,39,40)(H,41,42)(H2,23,25,26)(H3,24,28,29,36)/t8-,9-,12-,13-,14-,15-,20-,21-/m1/s1

> <OPENEYE_INCHIKEY>
WZAAWBDISKLAIE-NAGRZYTCSA-N

> <FORMULA>
C22H32N10O17P3

$$$$
