UXS
  -OEChem-02242320043D

 21 20  0     1  0  0  0  0  0999 V2000
    2.7020    0.7310    0.1180 C   0  0  0  0  0  0  0  0  0  0  0  0
    3.9010    0.1320   -0.3790 O   0  0  0  0  0  0  0  0  0  0  0  0
    1.5060   -0.1570   -0.2320 C   0  0  2  0  0  0  0  0  0  0  0  0
    0.2120    0.5420    0.1890 C   0  0  0  0  0  0  0  0  0  0  0  0
   -0.9890   -0.2870   -0.2730 C   0  0  0  0  0  0  0  0  0  0  0  0
   -2.5230    0.5420    0.2270 S   0  0  0  0  0  0  0  0  0  0  0  0
   -3.8110   -0.5730   -0.3990 C   0  0  0  0  0  0  0  0  0  0  0  0
    1.6230   -1.4390    0.4750 N   0  0  0  0  0  0  0  0  0  0  0  0
    4.7010    0.6420   -0.1930 H   0  0  0  0  0  0  0  0  0  0  0  0
    1.4890   -0.3360   -1.3080 H   0  0  0  0  0  0  0  0  0  0  0  0
    0.1890    0.6410    1.2740 H   0  0  0  0  0  0  0  0  0  0  0  0
    0.1680    1.5310   -0.2670 H   0  0  0  0  0  0  0  0  0  0  0  0
   -0.9660   -0.3860   -1.3580 H   0  0  0  0  0  0  0  0  0  0  0  0
   -0.9450   -1.2760    0.1830 H   0  0  0  0  0  0  0  0  0  0  0  0
   -4.7930   -0.1690   -0.1520 H   0  0  0  0  0  0  0  0  0  0  0  0
   -3.7170   -0.6650   -1.4810 H   0  0  0  0  0  0  0  0  0  0  0  0
   -3.6960   -1.5540    0.0610 H   0  0  0  0  0  0  0  0  0  0  0  0
    1.6410   -1.3000    1.4750 H   0  0  0  0  0  0  0  0  0  0  0  0
    0.8790   -2.0670    0.2110 H   0  0  0  0  0  0  0  0  0  0  0  0
    2.7710    0.8370    1.2010 H   0  0  0  0  0  0  0  0  0  0  0  0
    2.5710    1.7130   -0.3360 H   0  0  0  0  0  0  0  0  0  0  0  0
  6  7  1  0  0  0  0
  5  6  1  0  0  0  0
  4  5  1  0  0  0  0
  3  4  1  0  0  0  0
  1  2  1  0  0  0  0
  1  3  1  0  0  0  0
  3  8  1  0  0  0  0
  2  9  1  0  0  0  0
  3 10  1  0  0  0  0
  4 11  1  0  0  0  0
  4 12  1  0  0  0  0
  5 13  1  0  0  0  0
  5 14  1  0  0  0  0
  7 15  1  0  0  0  0
  7 16  1  0  0  0  0
  7 17  1  0  0  0  0
  8 18  1  0  0  0  0
  8 19  1  0  0  0  0
  1 20  1  0  0  0  0
  1 21  1  0  0  0  0
M  END
> <OPENEYE_ISO_SMILES>
CSCC[C@@H](CO)N

> <OPENEYE_INCHI>
InChI=1S/C5H13NOS/c1-8-3-2-5(6)4-7/h5,7H,2-4,6H2,1H3/t5-/m0/s1

> <OPENEYE_INCHIKEY>
MIQJGZAEWQQAPN-YFKPBYRVSA-N

> <FORMULA>
C5H13NOS

$$$$
