@<TRIPOS>MOLECULE
/home/pku/3cl/gett_pdb/5SRJ/5SRJ_mol2/ligand/5SRJ_R9L.pdb
 35 38 0 0 0
SMALL
GASTEIGER

@<TRIPOS>ATOM
      1  C16      -43.9530  -30.7580    1.7540 C.3   201  R9L201      0.0132
      2  C17      -45.0750  -31.7030    1.1350 C.3   201  R9L201      0.0715
      3  C15      -44.2980  -29.2360    1.6690 C.3   201  R9L201      0.0162
      4  C13      -45.2910  -29.0050    4.0030 C.ar  201  R9L201      0.1318
      5  C11      -43.9720  -29.1980    5.9720 C.ar  201  R9L201      0.1204
      6  C02      -50.7710  -28.8570    4.8440 C.ar  201  R9L201      0.1254
      7  C03      -50.1670  -28.7880    3.5550 C.ar  201  R9L201     -0.0257
      8  C04      -48.7750  -28.8380    3.4470 C.ar  201  R9L201     -0.0491
      9  C05      -47.9300  -28.9400    4.5850 C.ar  201  R9L201      0.0124
     10  C06      -48.5610  -28.9970    5.8640 C.ar  201  R9L201      0.0515
     11  C07      -49.9730  -28.9690    5.9980 C.ar  201  R9L201     -0.0025
     12  C09      -46.2860  -29.1210    6.2160 C.ar  201  R9L201      0.1442
     13  C21      -42.9350  -31.3700    0.6960 C.3   201  R9L201      0.0715
     14  C22      -46.4800  -29.0190    4.8020 C.ar  201  R9L201      0.0661
     15  F01      -52.0700  -28.8200    4.9410 F     201  R9L201     -0.2054
     16  N08      -47.5430  -29.1140    6.8470 N.ar  201  R9L201     -0.3389
     17  N10      -45.0380  -29.2160    6.8160 N.ar  201  R9L201     -0.2178
     18  N12      -44.0490  -29.0980    4.6020 N.ar  201  R9L201     -0.2202
     19  N14      -45.3610  -28.8930    2.5870 N.pl3 201  R9L201     -0.3281
     20  O19      -43.5490  -33.7510    1.6080 O.2   201  R9L201     -0.1743
     21  O20      -44.0920  -33.2400   -0.7500 O.2   201  R9L201     -0.1743
     22  S18      -43.8890  -32.7910    0.5970 S.O2  201  R9L201     -0.0303
     23 H172      -45.7050  -31.2360    0.3420 H     201  R9L201      0.0503
     24 H171      -45.8270  -32.0950    1.8600 H     201  R9L201      0.0503
     25 H151      -44.5680  -28.9850    0.6170 H     201  R9L201      0.0465
     26 H152      -43.4040  -28.6440    1.9500 H     201  R9L201      0.0465
     27 H111      -42.9570  -29.2800    6.4360 H     201  R9L201      0.1048
     28 H031      -50.8420  -28.7060    2.6740 H     201  R9L201      0.0646
     29 H041      -48.3320  -28.7920    2.4410 H     201  R9L201      0.0625
     30 H071      -50.5050  -29.0080    6.9640 H     201  R9L201      0.0667
     31 H212      -41.8880  -31.5030    1.0500 H     201  R9L201      0.0503
     32 H211      -42.8230  -30.7980   -0.2490 H     201  R9L201      0.0503
     33 H081      -47.7000  -29.1820    7.8560 H     201  R9L201      0.1673
     34 H141      -46.2350  -28.5690    2.1850 H     201  R9L201      0.1475
     35 H161      -43.6950  -31.0030    2.8090 H     201  R9L201      0.0347
@<TRIPOS>BOND
     1    21    22    2
     2    32    13    1
     3    23     2    1
     4    22    13    1
     5    22     2    1
     6    22    20    2
     7    25     3    1
     8    13    31    1
     9    13     1    1
    10     2     1    1
    11     2    24    1
    12     3     1    1
    13     3    26    1
    14     3    19    1
    15     1    35    1
    16    34    19    1
    17    29     8    1
    18    19     4    1
    19    28     7    1
    20     8     7   ar
    21     8     9   ar
    22     7     6   ar
    23     4    18   ar
    24     4    14   ar
    25     9    14   ar
    26     9    10   ar
    27    18     5   ar
    28    14    12   ar
    29     6    15    1
    30     6    11   ar
    31    10    11   ar
    32    10    16   ar
    33     5    27    1
    34     5    17   ar
    35    11    30    1
    36    12    17   ar
    37    12    16   ar
    38    16    33    1
