I12
  -OEChem-02242320023D

 90 91  0     1  0  0  0  0  0999 V2000
   -9.5200    0.4540   -1.6200 N   0  0  0  0  0  0  0  0  0  0  0  0
   -9.5320   -0.0190   -0.3980 C   0  0  0  0  0  0  0  0  0  0  0  0
  -10.8960   -0.0350    0.0050 C   0  0  0  0  0  0  0  0  0  0  0  0
  -11.5600    0.4450   -1.0720 C   0  0  0  0  0  0  0  0  0  0  0  0
  -13.0490    0.6450   -1.1960 C   0  0  0  0  0  0  0  0  0  0  0  0
  -10.6360    0.7090   -2.0060 O   0  0  0  0  0  0  0  0  0  0  0  0
   -8.3600   -0.4460    0.4040 C   0  0  0  0  0  0  0  0  0  0  0  0
   -8.5180   -0.8640    1.5350 O   0  0  0  0  0  0  0  0  0  0  0  0
   -7.1210   -0.3720   -0.1200 N   0  0  0  0  0  0  0  0  0  0  0  0
   -5.9630   -0.7940    0.6730 C   0  0  2  0  0  0  0  0  0  0  0  0
   -4.7300   -0.0840    0.1780 C   0  0  0  0  0  0  0  0  0  0  0  0
   -4.8100    0.6980   -0.7460 O   0  0  0  0  0  0  0  0  0  0  0  0
   -5.7730   -2.3050    0.5330 C   0  0  0  0  0  0  0  0  0  0  0  0
   -3.5380   -0.3170    0.7620 N   0  0  0  0  0  0  0  0  0  0  0  0
   -2.3390    0.3730    0.2800 C   0  0  1  0  0  0  0  0  0  0  0  0
   -2.2340    1.7430    0.9530 C   0  0  0  0  0  0  0  0  0  0  0  0
   -2.0940    1.5600    2.4650 C   0  0  0  0  0  0  0  0  0  0  0  0
   -1.0100    2.4850    0.4130 C   0  0  0  0  0  0  0  0  0  0  0  0
   -1.1190   -0.4460    0.6170 C   0  0  0  0  0  0  0  0  0  0  0  0
   -1.1600   -1.2510    1.5230 O   0  0  0  0  0  0  0  0  0  0  0  0
    0.0180   -0.2830   -0.0890 N   0  0  0  0  0  0  0  0  0  0  0  0
    1.2250   -1.0230    0.2860 C   0  0  1  0  0  0  0  0  0  0  0  0
    1.2280   -2.3830   -0.4140 C   0  0  0  0  0  0  0  0  0  0  0  0
    2.4240   -3.2040    0.0710 C   0  0  0  0  0  0  0  0  0  0  0  0
    2.2390   -3.5510    1.5500 C   0  0  0  0  0  0  0  0  0  0  0  0
    2.5230   -4.4930   -0.7470 C   0  0  0  0  0  0  0  0  0  0  0  0
    2.4440   -0.2410   -0.1320 C   0  0  0  0  0  0  0  0  0  0  0  0
    2.3770    0.5340   -1.0630 O   0  0  0  0  0  0  0  0  0  0  0  0
    3.6070   -0.4020    0.5290 N   0  0  0  0  0  0  0  0  0  0  0  0
    4.7660    0.4250    0.1840 C   0  0  2  0  0  0  0  0  0  0  0  0
    6.0330   -0.3220    0.5140 C   0  0  0  0  0  0  0  0  0  0  0  0
    6.9120   -0.6000   -0.4460 C   0  0  0  0  0  0  0  0  0  0  0  0
    8.1460   -1.3290   -0.1240 C   0  0  0  0  0  0  0  0  0  0  0  0
    8.3650   -1.6780    1.0200 O   0  0  0  0  0  0  0  0  0  0  0  0
    9.0360   -1.6100   -1.0960 O   0  0  0  0  0  0  0  0  0  0  0  0
   10.2570   -2.3300   -0.7770 C   0  0  0  0  0  0  0  0  0  0  0  0
   11.0850   -2.5170   -2.0500 C   0  0  0  0  0  0  0  0  0  0  0  0
    4.7200    1.7280    0.9840 C   0  0  0  0  0  0  0  0  0  0  0  0
    5.8590    2.6440    0.5330 C   0  0  2  0  0  0  0  0  0  0  0  0
    5.9140    3.9140    1.4140 C   0  0  0  0  0  0  0  0  0  0  0  0
    6.3150    4.9940    0.3850 C   0  0  0  0  0  0  0  0  0  0  0  0
    5.8540    4.4890   -0.9140 N   0  0  0  0  0  0  0  0  0  0  0  0
    5.5970    3.1680   -0.8620 C   0  0  0  0  0  0  0  0  0  0  0  0
    5.2110    2.4980   -1.7970 O   0  0  0  0  0  0  0  0  0  0  0  0
  -11.3070   -0.3560    0.9510 H   0  0  0  0  0  0  0  0  0  0  0  0
  -13.3100    1.6490   -0.8600 H   0  0  0  0  0  0  0  0  0  0  0  0
  -13.3460    0.5220   -2.2370 H   0  0  0  0  0  0  0  0  0  0  0  0
  -13.5670   -0.0900   -0.5800 H   0  0  0  0  0  0  0  0  0  0  0  0
   -6.9950   -0.0390   -1.0220 H   0  0  0  0  0  0  0  0  0  0  0  0
   -6.1300   -0.5440    1.7210 H   0  0  0  0  0  0  0  0  0  0  0  0
   -6.6650   -2.8190    0.8910 H   0  0  0  0  0  0  0  0  0  0  0  0
   -5.6060   -2.5550   -0.5150 H   0  0  0  0  0  0  0  0  0  0  0  0
   -4.9120   -2.6190    1.1220 H   0  0  0  0  0  0  0  0  0  0  0  0
   -3.4740   -0.9420    1.5010 H   0  0  0  0  0  0  0  0  0  0  0  0
   -2.4030    0.5020   -0.8000 H   0  0  0  0  0  0  0  0  0  0  0  0
   -3.1330    2.3220    0.7390 H   0  0  0  0  0  0  0  0  0  0  0  0
   -1.1950    0.9810    2.6790 H   0  0  0  0  0  0  0  0  0  0  0  0
   -2.0200    2.5370    2.9440 H   0  0  0  0  0  0  0  0  0  0  0  0
   -2.9670    1.0320    2.8500 H   0  0  0  0  0  0  0  0  0  0  0  0
   -1.0690    2.5400   -0.6740 H   0  0  0  0  0  0  0  0  0  0  0  0
   -0.9830    3.4920    0.8270 H   0  0  0  0  0  0  0  0  0  0  0  0
   -0.1050    1.9490    0.7000 H   0  0  0  0  0  0  0  0  0  0  0  0
    0.0360    0.3250   -0.8450 H   0  0  0  0  0  0  0  0  0  0  0  0
    1.2410   -1.1700    1.3660 H   0  0  0  0  0  0  0  0  0  0  0  0
    0.3040   -2.9130   -0.1810 H   0  0  0  0  0  0  0  0  0  0  0  0
    1.3000   -2.2370   -1.4920 H   0  0  0  0  0  0  0  0  0  0  0  0
    3.3380   -2.6230   -0.0540 H   0  0  0  0  0  0  0  0  0  0  0  0
    1.3580   -4.1830    1.6670 H   0  0  0  0  0  0  0  0  0  0  0  0
    3.1180   -4.0840    1.9110 H   0  0  0  0  0  0  0  0  0  0  0  0
    2.1080   -2.6350    2.1240 H   0  0  0  0  0  0  0  0  0  0  0  0
    2.6550   -4.2460   -1.8000 H   0  0  0  0  0  0  0  0  0  0  0  0
    3.3760   -5.0780   -0.4010 H   0  0  0  0  0  0  0  0  0  0  0  0
    1.6090   -5.0740   -0.6220 H   0  0  0  0  0  0  0  0  0  0  0  0
    3.6770   -1.0650    1.2330 H   0  0  0  0  0  0  0  0  0  0  0  0
    4.7460    0.6520   -0.8820 H   0  0  0  0  0  0  0  0  0  0  0  0
    6.2270   -0.6330    1.5300 H   0  0  0  0  0  0  0  0  0  0  0  0
    6.7170   -0.2900   -1.4620 H   0  0  0  0  0  0  0  0  0  0  0  0
   10.0050   -3.3050   -0.3610 H   0  0  0  0  0  0  0  0  0  0  0  0
   10.8340   -1.7610   -0.0480 H   0  0  0  0  0  0  0  0  0  0  0  0
   12.0010   -3.0570   -1.8110 H   0  0  0  0  0  0  0  0  0  0  0  0
   10.5080   -3.0850   -2.7790 H   0  0  0  0  0  0  0  0  0  0  0  0
   11.3370   -1.5410   -2.4660 H   0  0  0  0  0  0  0  0  0  0  0  0
    3.7650    2.2250    0.8130 H   0  0  0  0  0  0  0  0  0  0  0  0
    4.8300    1.5070    2.0450 H   0  0  0  0  0  0  0  0  0  0  0  0
    6.8110    2.1140    0.5690 H   0  0  0  0  0  0  0  0  0  0  0  0
    4.9370    4.1310    1.8460 H   0  0  0  0  0  0  0  0  0  0  0  0
    6.6700    3.8160    2.1920 H   0  0  0  0  0  0  0  0  0  0  0  0
    5.8230    5.9390    0.6180 H   0  0  0  0  0  0  0  0  0  0  0  0
    7.3970    5.1240    0.3760 H   0  0  0  0  0  0  0  0  0  0  0  0
    5.7480    5.0360   -1.7080 H   0  0  0  0  0  0  0  0  0  0  0  0
  1  2  2  0  0  0  0
  1  6  1  0  0  0  0
  2  3  1  0  0  0  0
  2  7  1  0  0  0  0
  3  4  2  0  0  0  0
  3 45  1  0  0  0  0
  4  5  1  0  0  0  0
  4  6  1  0  0  0  0
  5 46  1  0  0  0  0
  5 47  1  0  0  0  0
  5 48  1  0  0  0  0
  7  8  2  0  0  0  0
  7  9  1  0  0  0  0
  9 10  1  0  0  0  0
  9 49  1  0  0  0  0
 10 11  1  0  0  0  0
 10 13  1  0  0  0  0
 10 50  1  0  0  0  0
 11 12  2  0  0  0  0
 11 14  1  0  0  0  0
 13 51  1  0  0  0  0
 13 52  1  0  0  0  0
 13 53  1  0  0  0  0
 14 15  1  0  0  0  0
 14 54  1  0  0  0  0
 15 16  1  0  0  0  0
 15 19  1  0  0  0  0
 15 55  1  0  0  0  0
 16 17  1  0  0  0  0
 16 18  1  0  0  0  0
 16 56  1  0  0  0  0
 17 57  1  0  0  0  0
 17 58  1  0  0  0  0
 17 59  1  0  0  0  0
 18 60  1  0  0  0  0
 18 61  1  0  0  0  0
 18 62  1  0  0  0  0
 19 20  2  0  0  0  0
 19 21  1  0  0  0  0
 21 22  1  0  0  0  0
 21 63  1  0  0  0  0
 22 23  1  0  0  0  0
 22 27  1  0  0  0  0
 22 64  1  0  0  0  0
 23 24  1  0  0  0  0
 23 65  1  0  0  0  0
 23 66  1  0  0  0  0
 24 25  1  0  0  0  0
 24 26  1  0  0  0  0
 24 67  1  0  0  0  0
 25 68  1  0  0  0  0
 25 69  1  0  0  0  0
 25 70  1  0  0  0  0
 26 71  1  0  0  0  0
 26 72  1  0  0  0  0
 26 73  1  0  0  0  0
 27 28  2  0  0  0  0
 27 29  1  0  0  0  0
 29 30  1  0  0  0  0
 29 74  1  0  0  0  0
 30 31  1  0  0  0  0
 30 38  1  0  0  0  0
 30 75  1  0  0  0  0
 31 32  2  0  0  0  0
 31 76  1  0  0  0  0
 32 33  1  0  0  0  0
 32 77  1  0  0  0  0
 33 34  2  0  0  0  0
 33 35  1  0  0  0  0
 35 36  1  0  0  0  0
 36 37  1  0  0  0  0
 36 78  1  0  0  0  0
 36 79  1  0  0  0  0
 37 80  1  0  0  0  0
 37 81  1  0  0  0  0
 37 82  1  0  0  0  0
 38 39  1  0  0  0  0
 38 83  1  0  0  0  0
 38 84  1  0  0  0  0
 39 40  1  0  0  0  0
 39 43  1  0  0  0  0
 39 85  1  0  0  0  0
 40 41  1  0  0  0  0
 40 86  1  0  0  0  0
 40 87  1  0  0  0  0
 41 42  1  0  0  0  0
 41 88  1  0  0  0  0
 41 89  1  0  0  0  0
 42 43  1  0  0  0  0
 42 90  1  0  0  0  0
 43 44  2  0  0  0  0
M  END
> <OPENEYE_ISO_SMILES>
CCOC(=O)/C=C/[C@H](C[C@@H]1CCNC1=O)NC(=O)[C@H](CC(C)C)NC(=O)[C@H](C(C)C)NC(=O)[C@H](C)NC(=O)c2cc(on2)C

> <OPENEYE_INCHI>
InChI=1S/C30H46N6O8/c1-8-43-24(37)10-9-21(15-20-11-12-31-27(20)39)33-28(40)22(13-16(2)3)34-30(42)25(17(4)5)35-26(38)19(7)32-29(41)23-14-18(6)44-36-23/h9-10,14,16-17,19-22,25H,8,11-13,15H2,1-7H3,(H,31,39)(H,32,41)(H,33,40)(H,34,42)(H,35,38)/b10-9+/t19-,20-,21+,22-,25-/m0/s1

> <OPENEYE_INCHIKEY>
LIVSSCDUYUOZEL-GLXPMXKMSA-N

> <FORMULA>
C30H46N6O8

$$$$
