6SU
  -OEChem-02242320013D

 26 26  0     0  0  0  0  0  0999 V2000
   -4.0710   -1.1520    0.5060 O   0  0  0  0  0  0  0  0  0  0  0  0
    0.5180    2.2430   -0.0300 C   0  0  0  0  0  0  0  0  0  0  0  0
   -0.6300    1.5330    0.2660 C   0  0  0  0  0  0  0  0  0  0  0  0
   -0.5670    0.1630    0.4940 C   0  0  0  0  0  0  0  0  0  0  0  0
    0.6510   -0.4950    0.4270 C   0  0  0  0  0  0  0  0  0  0  0  0
   -2.6930   -0.8530   -1.7590 C   0  0  0  0  0  0  0  0  0  0  0  0
   -3.1100   -0.2890   -0.0860 S   0  0  0  0  0  0  0  0  0  0  0  0
   -3.2790    1.1220   -0.0630 O   0  0  0  0  0  0  0  0  0  0  0  0
   -1.7310   -0.5500    0.7930 N   0  0  0  0  0  0  0  0  0  0  0  0
    1.7350    1.5970   -0.1050 C   0  0  0  0  0  0  0  0  0  0  0  0
    1.8110    0.2220    0.1290 C   0  0  0  0  0  0  0  0  0  0  0  0
    3.1120   -0.4730    0.0490 C   0  0  0  0  0  0  0  0  0  0  0  0
    3.1750   -1.6690    0.2520 O   0  0  0  0  0  0  0  0  0  0  0  0
    4.2280    0.2200   -0.2490 O   0  0  0  0  0  0  0  0  0  0  0  0
    5.4710   -0.5280   -0.3100 C   0  0  0  0  0  0  0  0  0  0  0  0
    0.4630    3.3070   -0.2060 H   0  0  0  0  0  0  0  0  0  0  0  0
   -1.5800    2.0440    0.3190 H   0  0  0  0  0  0  0  0  0  0  0  0
    0.7030   -1.5590    0.6040 H   0  0  0  0  0  0  0  0  0  0  0  0
   -3.5540   -0.7160   -2.4140 H   0  0  0  0  0  0  0  0  0  0  0  0
   -1.8530   -0.2730   -2.1400 H   0  0  0  0  0  0  0  0  0  0  0  0
   -2.4230   -1.9080   -1.7300 H   0  0  0  0  0  0  0  0  0  0  0  0
   -1.7310   -1.1970    1.5150 H   0  0  0  0  0  0  0  0  0  0  0  0
    2.6300    2.1550   -0.3360 H   0  0  0  0  0  0  0  0  0  0  0  0
    5.3930   -1.3010   -1.0750 H   0  0  0  0  0  0  0  0  0  0  0  0
    6.2900    0.1470   -0.5580 H   0  0  0  0  0  0  0  0  0  0  0  0
    5.6640   -0.9920    0.6570 H   0  0  0  0  0  0  0  0  0  0  0  0
 12 13  2  0  0  0  0
 14 15  1  0  0  0  0
 12 14  1  0  0  0  0
 11 12  1  0  0  0  0
 10 11  2  0  0  0  0
  2 10  1  0  0  0  0
  5 11  1  0  0  0  0
  2  3  2  0  0  0  0
  4  5  2  0  0  0  0
  3  4  1  0  0  0  0
  4  9  1  0  0  0  0
  6  7  1  0  0  0  0
  7  9  1  0  0  0  0
  1  7  2  0  0  0  0
  7  8  2  0  0  0  0
  2 16  1  0  0  0  0
  3 17  1  0  0  0  0
  5 18  1  0  0  0  0
  6 19  1  0  0  0  0
  6 20  1  0  0  0  0
  6 21  1  0  0  0  0
  9 22  1  0  0  0  0
 10 23  1  0  0  0  0
 15 24  1  0  0  0  0
 15 25  1  0  0  0  0
 15 26  1  0  0  0  0
M  END
> <OPENEYE_ISO_SMILES>
COC(=O)c1cccc(c1)NS(=O)(=O)C

> <OPENEYE_INCHI>
InChI=1S/C9H11NO4S/c1-14-9(11)7-4-3-5-8(6-7)10-15(2,12)13/h3-6,10H,1-2H3

> <OPENEYE_INCHIKEY>
UQIOKJVVJMHUTP-UHFFFAOYSA-N

> <FORMULA>
C9H11NO4S

$$$$
