N0E
  -OEChem-02242320033D

 33 34  0     0  0  0  0  0  0999 V2000
   -1.1600   -0.7850   -0.5820 N   0  0  0  0  0  0  0  0  0  0  0  0
    3.5930    0.2720    0.2690 C   0  0  0  0  0  0  0  0  0  0  0  0
    4.2240    0.9890   -0.7300 C   0  0  0  0  0  0  0  0  0  0  0  0
    5.5520    0.7440   -1.0250 C   0  0  0  0  0  0  0  0  0  0  0  0
    2.1460    0.5390    0.5900 C   0  0  0  0  0  0  0  0  0  0  0  0
    1.2580   -0.3660   -0.2660 C   0  0  0  0  0  0  0  0  0  0  0  0
   -2.5050   -0.4610   -0.3650 C   0  0  0  0  0  0  0  0  0  0  0  0
   -5.1650    0.1800    0.0620 C   0  0  0  0  0  0  0  0  0  0  0  0
   -3.4720   -1.4570   -0.3910 C   0  0  0  0  0  0  0  0  0  0  0  0
    6.2500   -0.2190   -0.3200 C   0  0  0  0  0  0  0  0  0  0  0  0
    5.6200   -0.9350    0.6800 C   0  0  0  0  0  0  0  0  0  0  0  0
    4.2900   -0.6940    0.9710 C   0  0  0  0  0  0  0  0  0  0  0  0
   -0.1900   -0.0990    0.0550 C   0  0  0  0  0  0  0  0  0  0  0  0
   -0.4830    0.7340    0.8870 O   0  0  0  0  0  0  0  0  0  0  0  0
   -2.8720    0.8560   -0.1200 C   0  0  0  0  0  0  0  0  0  0  0  0
   -4.1980    1.1750    0.0930 C   0  0  0  0  0  0  0  0  0  0  0  0
   -4.7990   -1.1360   -0.1770 C   0  0  0  0  0  0  0  0  0  0  0  0
   -6.4710    0.4950    0.2730 O   0  0  0  0  0  0  0  0  0  0  0  0
   -0.9250   -1.5060   -1.1870 H   0  0  0  0  0  0  0  0  0  0  0  0
    3.6780    1.7410   -1.2820 H   0  0  0  0  0  0  0  0  0  0  0  0
    6.0440    1.3040   -1.8070 H   0  0  0  0  0  0  0  0  0  0  0  0
    1.9640    0.3350    1.6450 H   0  0  0  0  0  0  0  0  0  0  0  0
    1.9130    1.5830    0.3780 H   0  0  0  0  0  0  0  0  0  0  0  0
    1.4400   -0.1610   -1.3210 H   0  0  0  0  0  0  0  0  0  0  0  0
    1.4900   -1.4090   -0.0530 H   0  0  0  0  0  0  0  0  0  0  0  0
   -3.1880   -2.4810   -0.5780 H   0  0  0  0  0  0  0  0  0  0  0  0
    7.2880   -0.4070   -0.5470 H   0  0  0  0  0  0  0  0  0  0  0  0
    6.1650   -1.6870    1.2310 H   0  0  0  0  0  0  0  0  0  0  0  0
    3.7980   -1.2540    1.7530 H   0  0  0  0  0  0  0  0  0  0  0  0
   -2.1190    1.6300   -0.0950 H   0  0  0  0  0  0  0  0  0  0  0  0
   -4.4840    2.1990    0.2800 H   0  0  0  0  0  0  0  0  0  0  0  0
   -5.5510   -1.9110   -0.1970 H   0  0  0  0  0  0  0  0  0  0  0  0
   -6.9560    0.7170   -0.5340 H   0  0  0  0  0  0  0  0  0  0  0  0
 10 11  2  0  0  0  0
  4 10  1  0  0  0  0
 11 12  1  0  0  0  0
  9 17  2  0  0  0  0
  7  9  1  0  0  0  0
  1  7  1  0  0  0  0
  1 13  1  0  0  0  0
  3  4  2  0  0  0  0
  6 13  1  0  0  0  0
  5  6  1  0  0  0  0
  8 17  1  0  0  0  0
  7 15  2  0  0  0  0
  2 12  2  0  0  0  0
  2  3  1  0  0  0  0
  2  5  1  0  0  0  0
  8 18  1  0  0  0  0
  8 16  2  0  0  0  0
 15 16  1  0  0  0  0
 13 14  2  0  0  0  0
  1 19  1  0  0  0  0
  3 20  1  0  0  0  0
  4 21  1  0  0  0  0
  5 22  1  0  0  0  0
  5 23  1  0  0  0  0
  6 24  1  0  0  0  0
  6 25  1  0  0  0  0
  9 26  1  0  0  0  0
 10 27  1  0  0  0  0
 11 28  1  0  0  0  0
 12 29  1  0  0  0  0
 15 30  1  0  0  0  0
 16 31  1  0  0  0  0
 17 32  1  0  0  0  0
 18 33  1  0  0  0  0
M  END
> <OPENEYE_ISO_SMILES>
c1ccc(cc1)CCC(=O)Nc2ccc(cc2)O

> <OPENEYE_INCHI>
InChI=1S/C15H15NO2/c17-14-9-7-13(8-10-14)16-15(18)11-6-12-4-2-1-3-5-12/h1-5,7-10,17H,6,11H2,(H,16,18)

> <OPENEYE_INCHIKEY>
OHWHQNCVWRVQFT-UHFFFAOYSA-N

> <FORMULA>
C15H15NO2

$$$$
