@<TRIPOS>MOLECULE
/home/pku/3cl/gett_pdb/7SF1/7SF1_mol2/ligand/7SF1_8ZI.pdb
 39 41 0 0 0
SMALL
GASTEIGER

@<TRIPOS>ATOM
      1  N1        10.8160  -25.2900   22.7170 N.am  401  8ZI401     -0.2716
      2  N3         9.0830  -27.4850   20.6410 N.am  401  8ZI401     -0.2024
      3  C4        11.9560  -26.7330   24.1800 C.3   401  8ZI401      0.0220
      4  C5        13.0880  -27.1230   23.2520 C.3   401  8ZI401      0.0037
      5  C6        13.8150  -26.0680   22.4410 C.3   401  8ZI401      0.0001
      6  C7        14.0010  -28.2570   23.6820 C.3   401  8ZI401      0.0001
      7  C8        11.2860  -25.3750   24.1090 C.3   401  8ZI401      0.0939
      8  C10       10.1330  -22.9310   22.9620 C.3   401  8ZI401      0.1711
      9  C13        7.7630  -23.5530   23.5260 C.3   401  8ZI401      0.0022
     10  C15       12.1740  -21.5830   23.0320 C.2   401  8ZI401      0.2418
     11  C17       12.6940  -19.0460   22.8050 C.3   401  8ZI401      0.0087
     12  C20       13.7760  -18.1320   22.2280 C.3   401  8ZI401      0.0005
     13  C21        7.7500  -28.0420   20.3650 C.3   401  8ZI401      0.1410
     14  C22        7.9390  -29.5760   20.1510 C.3   401  8ZI401      0.3143
     15  C24        7.0720  -27.2700   19.2260 C.3   401  8ZI401      0.0342
     16  C26        5.5820  -25.5040   20.4570 C.3   401  8ZI401      0.0326
     17  C28        6.4220  -25.0210   18.2710 C.2   401  8ZI401      0.2410
     18  O1         8.6670  -26.9750   22.7930 O.2   401  8ZI401     -0.2716
     19  C1         9.4470  -27.0690   21.8530 C.2   401  8ZI401      0.2595
     20  C2        10.8720  -26.5660   21.9990 C.3   401  8ZI401      0.1535
     21  C3        11.6640  -27.4870   22.8970 C.3   401  8ZI401      0.0289
     22  C9        10.2920  -24.2000   22.1160 C.2   401  8ZI401      0.2458
     23  C11        8.6840  -22.4100   23.0860 C.3   401  8ZI401      0.0269
     24  C12        8.1420  -21.8490   21.7710 C.3   401  8ZI401      0.0022
     25  C14        8.6470  -21.2910   24.1380 C.3   401  8ZI401      0.0022
     26  N2        11.0340  -21.9190   22.4240 N.am  401  8ZI401     -0.1978
     27  C16       13.0040  -20.4990   22.3690 C.3   401  8ZI401      0.0868
     28  C18       12.7170  -18.9340   24.3360 C.3   401  8ZI401      0.0005
     29  C19       11.3270  -18.5660   22.2940 C.3   401  8ZI401      0.0005
     30  O2        12.5260  -22.1220   24.0780 O.2   401  8ZI401     -0.2733
     31  O3         9.9440  -24.2170   20.9250 O.2   401  8ZI401     -0.2730
     32  C23        6.5900  -30.2780   20.0990 C.2   401  8ZI401      0.5761
     33  N4         6.2350  -31.2580   21.1460 N.am  401  8ZI401      0.4881
     34  O4         5.8230  -30.0200   19.2200 O.2   401  8ZI401     -0.2019
     35  O5         8.7030  -30.1370   21.2270 O.3   401  8ZI401     -0.2051
     36  C25        6.7560  -25.8040   19.5340 C.3   401  8ZI401      0.0818
     37  C27        4.9930  -24.1770   19.9210 C.3   401  8ZI401      0.1156
     38  N5         5.4290  -24.1590   18.5280 N.am  401  8ZI401     -0.2054
     39  O6         6.9950  -25.1530   17.1810 O.2   401  8ZI401     -0.2734
@<TRIPOS>UNITY_ATOM_ATTR
33 1
charge 1
@<TRIPOS>BOND
     1    39    17    2
     2    17    38   am
     3    17    36    1
     4    38    37    1
     5    34    32    2
     6    15    36    1
     7    15    13    1
     8    36    16    1
     9    37    16    1
    10    32    14    1
    11    32    33    1
    12    14    13    1
    13    14    35    1
    14    13     2    1
    15     2    19   am
    16    31    22    2
    17    24    23    1
    18    19    20    1
    19    19    18    2
    20    20     1    1
    21    20    21    1
    22    22     1   am
    23    22     8    1
    24    12    11    1
    25    29    11    1
    26    27    11    1
    27    27    10    1
    28    26     8    1
    29    26    10   am
    30     5     4    1
    31     1     7    1
    32    11    28    1
    33    21     4    1
    34    21     3    1
    35     8    23    1
    36    10    30    2
    37    23     9    1
    38    23    25    1
    39     4     6    1
    40     4     3    1
    41     7     3    1
