@<TRIPOS>MOLECULE
/home/pku/3cl/gett_pdb/7K0E/7K0E_mol2/ligand/7K0E_K36.pdb
 29 30 0 0 0
SMALL
GASTEIGER

@<TRIPOS>ATOM
      1  C7         8.9490   25.8170   25.9560 C.3   401  K36401      0.2368
      2  O8        10.1040   25.4130   26.6870 O.3   401  K36401     -0.4285
      3  C9        10.4800   24.0840   26.6130 C.2   401  K36401      0.4218
      4  O10       10.0220   23.3470   25.7700 O.2   401  K36401     -0.2245
      5  C1         7.5900   25.8080   26.7460 C.ar  401  K36401      0.0213
      6  C2         7.4870   25.3410   28.0690 C.ar  401  K36401     -0.0007
      7  C3         6.2720   25.3350   28.7660 C.ar  401  K36401     -0.0002
      8  C4         5.0920   25.8020   28.1690 C.ar  401  K36401     -0.0000
      9  C5         5.1630   26.2800   26.8590 C.ar  401  K36401     -0.0002
     10  C6         6.3790   26.2850   26.1630 C.ar  401  K36401     -0.0007
     11  N11       11.3900   23.6000   27.5470 N.am  401  K36401     -0.1611
     12  C12       11.6310   22.1330   27.6700 C.3   401  K36401      0.1761
     13  C17       10.3360   21.5070   28.1700 C.2   401  K36401      0.2614
     14  O18        9.6740   22.1400   28.9820 O.2   401  K36401     -0.2715
     15  C13       12.7420   21.7880   28.6550 C.3   401  K36401      0.0312
     16  C14       14.1170   22.2370   28.2210 C.3   401  K36401      0.0022
     17  C15       15.1890   22.1020   29.3700 C.3   401  K36401      0.0001
     18  C16       14.5800   21.4450   27.0080 C.3   401  K36401      0.0001
     19  N19        9.8890   20.2860   27.7180 N.am  401  K36401     -0.2030
     20  C20        8.6510   19.6970   28.2070 C.3   401  K36401      0.1287
     21  C21        8.9440   18.3330   28.8260 C.3   401  K36401      0.2036
     22  O22        7.7000   17.8030   29.2370 O.3   401  K36401     -0.2185
     23  C24        7.5540   19.6220   27.0390 C.3   401  K36401      0.0335
     24  C25        7.1480   21.0170   26.4880 C.3   401  K36401      0.0818
     25  C26        6.3380   21.8460   27.4990 C.3   401  K36401      0.0326
     26  C27        5.1590   22.4860   26.6900 C.3   401  K36401      0.1156
     27  N28        5.0630   21.6780   25.5030 N.am  401  K36401     -0.2054
     28  C29        6.1340   20.8470   25.3240 C.2   401  K36401      0.2410
     29  O30        6.2150   20.1080   24.3860 O.2   401  K36401     -0.2734
@<TRIPOS>BOND
     1    29    28    2
     2    28    27   am
     3    28    24    1
     4    27    26    1
     5     4     3    2
     6     1     2    1
     7     1     5    1
     8    10     5   ar
     9    10     9   ar
    10    24    23    1
    11    24    25    1
    12     3     2    1
    13     3    11   am
    14    26    25    1
    15     5     6   ar
    16     9     8   ar
    17    18    16    1
    18    23    20    1
    19    11    12    1
    20    12    13    1
    21    12    15    1
    22    19    13   am
    23    19    20    1
    24     6     7   ar
    25     8     7   ar
    26    13    14    2
    27    20    21    1
    28    16    15    1
    29    16    17    1
    30    21    22    1
