UHA
  -OEChem-02242320043D

 34 35  0     1  0  0  0  0  0999 V2000
   -3.9090   -2.1950    0.0790 N   0  0  0  0  0  0  0  0  0  0  0  0
   -2.8550   -1.4440    0.3290 C   0  0  0  0  0  0  0  0  0  0  0  0
   -5.0990   -1.6720   -0.1380 C   0  0  0  0  0  0  0  0  0  0  0  0
   -5.2890   -0.3020   -0.1110 C   0  0  0  0  0  0  0  0  0  0  0  0
   -4.2090    0.5250    0.1490 C   0  0  0  0  0  0  0  0  0  0  0  0
   -4.3750    2.0220    0.1870 C   0  0  0  0  0  0  0  0  0  0  0  0
    1.8280    0.2990   -1.5360 C   0  0  0  0  0  0  0  0  0  0  0  0
    3.9940   -0.2790    0.0820 C   0  0  0  0  0  0  0  0  0  0  0  0
    5.3540   -0.6430    1.0980 Cl  0  0  0  0  0  0  0  0  0  0  0  0
    4.0370   -0.5860   -1.2660 C   0  0  0  0  0  0  0  0  0  0  0  0
    2.9540   -0.2970   -2.0750 C   0  0  0  0  0  0  0  0  0  0  0  0
    2.8720    0.3260    0.6180 C   0  0  0  0  0  0  0  0  0  0  0  0
    1.7870    0.6100   -0.1900 C   0  0  0  0  0  0  0  0  0  0  0  0
    0.5600    1.2590    0.3960 C   0  0  1  0  0  0  0  0  0  0  0  0
    0.3090    2.5970   -0.3010 C   0  0  0  0  0  0  0  0  0  0  0  0
   -0.6300    0.3560    0.1950 C   0  0  0  0  0  0  0  0  0  0  0  0
   -0.4950   -0.7090   -0.3690 O   0  0  0  0  0  0  0  0  0  0  0  0
   -1.8440    0.7330    0.6420 N   0  0  0  0  0  0  0  0  0  0  0  0
   -2.9660   -0.0610    0.3740 C   0  0  0  0  0  0  0  0  0  0  0  0
   -1.8960   -1.9100    0.5020 H   0  0  0  0  0  0  0  0  0  0  0  0
   -5.9380   -2.3210   -0.3400 H   0  0  0  0  0  0  0  0  0  0  0  0
   -6.2680    0.1170   -0.2900 H   0  0  0  0  0  0  0  0  0  0  0  0
   -4.6200    2.3350    1.2020 H   0  0  0  0  0  0  0  0  0  0  0  0
   -3.4460    2.4990   -0.1260 H   0  0  0  0  0  0  0  0  0  0  0  0
   -5.1790    2.3160   -0.4880 H   0  0  0  0  0  0  0  0  0  0  0  0
    0.9820    0.5250   -2.1680 H   0  0  0  0  0  0  0  0  0  0  0  0
    4.9120   -1.0600   -1.6860 H   0  0  0  0  0  0  0  0  0  0  0  0
    2.9870   -0.5360   -3.1280 H   0  0  0  0  0  0  0  0  0  0  0  0
    2.8390    0.5660    1.6710 H   0  0  0  0  0  0  0  0  0  0  0  0
    0.7120    1.4270    1.4620 H   0  0  0  0  0  0  0  0  0  0  0  0
    1.1690    3.2500   -0.1550 H   0  0  0  0  0  0  0  0  0  0  0  0
    0.1560    2.4290   -1.3670 H   0  0  0  0  0  0  0  0  0  0  0  0
   -0.5790    3.0670    0.1230 H   0  0  0  0  0  0  0  0  0  0  0  0
   -1.9410    1.5540    1.1490 H   0  0  0  0  0  0  0  0  0  0  0  0
  1  3  2  0  0  0  0
  1  2  1  0  0  0  0
  3  4  1  0  0  0  0
  2 19  2  0  0  0  0
  4  5  2  0  0  0  0
  5 19  1  0  0  0  0
 18 19  1  0  0  0  0
  5  6  1  0  0  0  0
 16 18  1  0  0  0  0
  8  9  1  0  0  0  0
 16 17  2  0  0  0  0
 14 16  1  0  0  0  0
  8 12  2  0  0  0  0
 12 13  1  0  0  0  0
  8 10  1  0  0  0  0
 13 14  1  0  0  0  0
 14 15  1  0  0  0  0
  7 13  2  0  0  0  0
 10 11  2  0  0  0  0
  7 11  1  0  0  0  0
  2 20  1  0  0  0  0
  3 21  1  0  0  0  0
  4 22  1  0  0  0  0
  6 23  1  0  0  0  0
  6 24  1  0  0  0  0
  6 25  1  0  0  0  0
  7 26  1  0  0  0  0
 10 27  1  0  0  0  0
 11 28  1  0  0  0  0
 12 29  1  0  0  0  0
 14 30  1  0  0  0  0
 15 31  1  0  0  0  0
 15 32  1  0  0  0  0
 15 33  1  0  0  0  0
 18 34  1  0  0  0  0
M  END
> <OPENEYE_ISO_SMILES>
Cc1ccncc1NC(=O)[C@H](C)c2cccc(c2)Cl

> <OPENEYE_INCHI>
InChI=1S/C15H15ClN2O/c1-10-6-7-17-9-14(10)18-15(19)11(2)12-4-3-5-13(16)8-12/h3-9,11H,1-2H3,(H,18,19)/t11-/m1/s1

> <OPENEYE_INCHIKEY>
WNGGAWMEODUSED-LLVKDONJSA-N

> <FORMULA>
C15H15ClN2O

$$$$
