W1A
  -OEChem-02242320043D

 28 28  0     0  0  0  0  0  0999 V2000
   -4.1560    0.3340   -0.2580 N   0  0  0  0  0  0  0  0  0  0  0  0
   -3.2400    1.3970    0.1740 C   0  0  0  0  0  0  0  0  0  0  0  0
   -3.7740   -0.9620    0.3160 C   0  0  0  0  0  0  0  0  0  0  0  0
   -2.3760   -1.3460   -0.1710 C   0  0  0  0  0  0  0  0  0  0  0  0
    2.7410   -1.2660    0.6840 O   0  0  0  0  0  0  0  0  0  0  0  0
    2.6080    0.0310    0.1190 S   0  0  0  0  0  0  0  0  0  0  0  0
    3.2300    1.1590    0.7190 O   0  0  0  0  0  0  0  0  0  0  0  0
    2.9490   -0.0120   -1.6620 C   0  0  0  0  0  0  0  0  0  0  0  0
    0.9870    0.3570    0.2220 N   0  0  0  0  0  0  0  0  0  0  0  0
    0.0120   -0.6130   -0.2840 C   0  0  0  0  0  0  0  0  0  0  0  0
   -1.3780   -0.2650    0.2530 C   0  0  0  0  0  0  0  0  0  0  0  0
   -1.8250    1.0840   -0.3180 C   0  0  0  0  0  0  0  0  0  0  0  0
   -5.1110    0.5650   -0.0290 H   0  0  0  0  0  0  0  0  0  0  0  0
   -3.5660    2.3500   -0.2430 H   0  0  0  0  0  0  0  0  0  0  0  0
   -3.2410    1.4570    1.2620 H   0  0  0  0  0  0  0  0  0  0  0  0
   -3.7730   -0.8910    1.4040 H   0  0  0  0  0  0  0  0  0  0  0  0
   -4.4900   -1.7230    0.0030 H   0  0  0  0  0  0  0  0  0  0  0  0
   -2.0860   -2.3010    0.2680 H   0  0  0  0  0  0  0  0  0  0  0  0
   -2.3800   -1.4310   -1.2580 H   0  0  0  0  0  0  0  0  0  0  0  0
    2.3470   -0.7920   -2.1280 H   0  0  0  0  0  0  0  0  0  0  0  0
    2.6990    0.9520   -2.1030 H   0  0  0  0  0  0  0  0  0  0  0  0
    4.0060   -0.2230   -1.8240 H   0  0  0  0  0  0  0  0  0  0  0  0
    0.6840    1.1890    0.6170 H   0  0  0  0  0  0  0  0  0  0  0  0
   -0.0010   -0.5800   -1.3730 H   0  0  0  0  0  0  0  0  0  0  0  0
    0.2890   -1.6130    0.0470 H   0  0  0  0  0  0  0  0  0  0  0  0
   -1.3440   -0.2080    1.3410 H   0  0  0  0  0  0  0  0  0  0  0  0
   -1.8200    1.0370   -1.4070 H   0  0  0  0  0  0  0  0  0  0  0  0
   -1.1420    1.8650    0.0160 H   0  0  0  0  0  0  0  0  0  0  0  0
  5  6  2  0  0  0  0
  6  7  2  0  0  0  0
  6  8  1  0  0  0  0
  6  9  1  0  0  0  0
  9 10  1  0  0  0  0
 10 11  1  0  0  0  0
  1  2  1  0  0  0  0
  2 12  1  0  0  0  0
  1  3  1  0  0  0  0
  3  4  1  0  0  0  0
  4 11  1  0  0  0  0
 11 12  1  0  0  0  0
  1 13  1  0  0  0  0
  2 14  1  0  0  0  0
  2 15  1  0  0  0  0
  3 16  1  0  0  0  0
  3 17  1  0  0  0  0
  4 18  1  0  0  0  0
  4 19  1  0  0  0  0
  8 20  1  0  0  0  0
  8 21  1  0  0  0  0
  8 22  1  0  0  0  0
  9 23  1  0  0  0  0
 10 24  1  0  0  0  0
 10 25  1  0  0  0  0
 11 26  1  0  0  0  0
 12 27  1  0  0  0  0
 12 28  1  0  0  0  0
M  END
> <OPENEYE_ISO_SMILES>
CS(=O)(=O)NCC1CCNCC1

> <OPENEYE_INCHI>
InChI=1S/C7H16N2O2S/c1-12(10,11)9-6-7-2-4-8-5-3-7/h7-9H,2-6H2,1H3

> <OPENEYE_INCHIKEY>
LULUGSQUPICPQM-UHFFFAOYSA-N

> <FORMULA>
C7H16N2O2S

$$$$
