@<TRIPOS>MOLECULE
/home/pku/3cl/gett_pdb/5RSL/5RSL_mol2/ligand/5RSL_W51.pdb
 31 33 0 0 0
SMALL
GASTEIGER

@<TRIPOS>ATOM
      1  C10      -45.1310  -32.3220    1.8700 C.3   201  W51201     -0.0471
      2  C13      -45.3820  -29.2290    1.0960 C.3   201  W51201     -0.0340
      3  C15      -46.5630  -29.2430    5.0580 C.ar  201  W51201      0.1202
      4  C02      -46.6010  -29.0620    6.4030 C.ar  201  W51201      0.1397
      5  C04      -44.4160  -29.4880    6.5550 C.ar  201  W51201      0.1202
      6  C06      -45.3680  -29.5860    4.5050 C.ar  201  W51201      0.1451
      7  C08      -43.9240  -30.5250    2.8130 C.3   201  W51201      0.0167
      8  C09      -44.0000  -31.3870    1.5780 C.3   201  W51201     -0.0251
      9  C11      -46.3680  -31.4800    1.6400 C.3   201  W51201     -0.0340
     10  C12      -46.2050  -30.0460    2.1110 C.3   201  W51201      0.0249
     11  C14      -44.3160  -30.2150    0.5850 C.3   201  W51201     -0.0471
     12  N01      -47.7990  -28.7160    7.0140 N.pl3 201  W51201     -0.3418
     13  N03      -45.5160  -29.1500    7.1240 N.ar  201  W51201     -0.2195
     14  N05      -44.3170  -29.6540    5.3170 N.ar  201  W51201     -0.2191
     15  N07      -45.1580  -29.8490    3.1080 N.pl3 201  W51201     -0.3106
     16 CL16      -48.0190  -28.9700    4.0780 Cl    201  W51201     -0.0764
     17 H102      -45.0950  -32.6290    2.7890 H     201  W51201      0.0269
     18 H101      -45.1150  -33.0740    1.2580 H     201  W51201      0.0269
     19 H132      -45.9490  -28.9360    0.3670 H     201  W51201      0.0283
     20 H131      -44.9660  -28.4650    1.5260 H     201  W51201      0.0283
     21 H041      -43.6570  -29.5960    7.0810 H     201  W51201      0.1048
     22 H081      -43.2250  -29.8630    2.6920 H     201  W51201      0.0467
     23 H082      -43.6820  -31.1000    3.5550 H     201  W51201      0.0467
     24 H091      -43.1620  -31.8340    1.3810 H     201  W51201      0.0316
     25 H112      -47.1040  -31.8800    2.1290 H     201  W51201      0.0283
     26 H111      -46.5890  -31.4850    0.6950 H     201  W51201      0.0283
     27 H121      -47.0370  -29.6020    2.2070 H     201  W51201      0.0500
     28 H142      -43.5100  -29.7180    0.4270 H     201  W51201      0.0269
     29 H141      -44.6140  -30.6200   -0.2360 H     201  W51201      0.0269
     30 H012      -48.5460  -28.9030    6.6320 H     201  W51201      0.1437
     31 H011      -47.7940  -28.3140    7.7740 H     201  W51201      0.1437
@<TRIPOS>BOND
     1    29    11    1
     2    19     2    1
     3    28    11    1
     4    11     2    1
     5    11     8    1
     6    26     9    1
     7     2    20    1
     8     2    10    1
     9    18     1    1
    10    24     8    1
    11     8     1    1
    12     8     7    1
    13     9     1    1
    14     9    10    1
    15     9    25    1
    16     1    17    1
    17    10    27    1
    18    10    15    1
    19    22     7    1
    20     7    15    1
    21     7    23    1
    22    15     6    1
    23    16     3    1
    24     6     3   ar
    25     6    14   ar
    26     3     4   ar
    27    14     5   ar
    28     4    12    1
    29     4    13   ar
    30     5    21    1
    31     5    13   ar
    32    30    12    1
    33    12    31    1
