@<TRIPOS>MOLECULE
/home/pku/3cl/gett_pdb/7VIC/7VIC_mol2/ligand/7VIC_ODN.pdb
 26 30 0 0 0
SMALL
GASTEIGER

@<TRIPOS>ATOM
      1  O3        13.8410    0.6340   17.3240 O.2   401  ODN401     -0.2958
      2  C17       12.6680    0.7530   17.5890 C.2   401  ODN401      0.1567
      3  C10       11.8780    0.1640   18.7410 C.3   401  ODN401      0.1316
      4  C18       12.6380   -0.9210   19.5340 C.3   401  ODN401      0.2554
      5  O4        13.0500   -1.9730   18.7300 O.3   401  ODN401     -0.1920
      6  O1        11.7140   -1.4670   20.4940 O.3   401  ODN401     -0.3298
      7  C8        11.1770   -0.4960   21.4200 C.3   401  ODN401      0.1472
      8  C19       13.8260   -0.4070   20.3490 C.3   401  ODN401      0.2062
      9  O5        14.9540   -0.0620   19.5430 O.3   401  ODN401     -0.2178
     10  C6        13.3790    0.7650   21.2350 C.3   401  ODN401      0.0402
     11  C3        14.1040    0.8120   22.6210 C.3   401  ODN401      0.0028
     12  C5        15.6210    1.0070   22.4340 C.3   401  ODN401      0.0001
     13  C4        13.9030   -0.4550   23.4770 C.3   401  ODN401      0.0001
     14  C2        13.5500    2.0230   23.3750 C.3   401  ODN401      0.0027
     15  C1        12.0410    1.9650   23.5430 C.3   401  ODN401      0.0330
     16  C13       11.6480    1.5540   16.8000 C.3   401  ODN401      0.0603
     17  C14       11.8050    3.0550   17.0150 C.3   401  ODN401      0.0078
     18  C12       10.2990    0.9250   17.1830 C.3   401  ODN401      0.0379
     19  C11       10.6900   -0.3680   17.9120 C.3   401  ODN401      0.1635
     20  O2        11.1280   -1.3920   17.0230 O.3   401  ODN401     -0.2225
     21  C15        9.4050    1.7060   18.1300 C.3   401  ODN401      0.0030
     22  C16        9.9640    1.7660   19.5530 C.3   401  ODN401      0.0009
     23  C9        11.4270    1.3130   19.7370 C.3   401  ODN401      0.0185
     24  C7        11.8100    0.8830   21.1980 C.3   401  ODN401      0.0587
     25  C         11.3120    1.9390   22.2180 C.3   401  ODN401      0.1543
     26  O          9.9150    1.7790   22.5180 O.3   401  ODN401     -0.2231
@<TRIPOS>BOND
     1    16    17    1
     2    16    18    1
     3    16     2    1
     4    20    19    1
     5    18    19    1
     6    18    21    1
     7     1     2    2
     8     2     3    1
     9    19     3    1
    10    21    22    1
    11     5     4    1
    12     3     4    1
    13     3    23    1
    14     4     8    1
    15     4     6    1
    16     9     8    1
    17    22    23    1
    18    23    24    1
    19     8    10    1
    20     6     7    1
    21    24    10    1
    22    24     7    1
    23    24    25    1
    24    10    11    1
    25    25    26    1
    26    25    15    1
    27    12    11    1
    28    11    14    1
    29    11    13    1
    30    14    15    1
