T0V
  -OEChem-02242320043D

 27 28  0     0  0  0  0  0  0999 V2000
    3.1170   -0.0800   -0.3040 C   0  0  0  0  0  0  0  0  0  0  0  0
    4.6350    1.1550    0.6870 C   0  0  0  0  0  0  0  0  0  0  0  0
   -2.3940    0.6300   -0.5520 C   0  0  0  0  0  0  0  0  0  0  0  0
   -3.5710    0.7790    0.1630 C   0  0  0  0  0  0  0  0  0  0  0  0
   -4.0620   -0.2760    0.9130 C   0  0  0  0  0  0  0  0  0  0  0  0
   -3.3780   -1.4760    0.9480 C   0  0  0  0  0  0  0  0  0  0  0  0
   -2.2040   -1.6230    0.2340 C   0  0  0  0  0  0  0  0  0  0  0  0
   -1.7120   -0.5710   -0.5160 C   0  0  0  0  0  0  0  0  0  0  0  0
   -0.4350   -0.7350   -1.2980 C   0  0  0  0  0  0  0  0  0  0  0  0
    1.9720   -0.4910   -1.1930 C   0  0  0  0  0  0  0  0  0  0  0  0
    3.8070   -0.8930    0.5160 C   0  0  0  0  0  0  0  0  0  0  0  0
    4.7850   -0.0970    1.1550 C   0  0  0  0  0  0  0  0  0  0  0  0
   -4.2390    1.9530    0.1290 F   0  0  0  0  0  0  0  0  0  0  0  0
    0.7070   -0.3430   -0.4610 N   0  0  0  0  0  0  0  0  0  0  0  0
    3.6260    1.1580   -0.2000 O   0  0  0  0  0  0  0  0  0  0  0  0
    5.2270    2.0120    0.9740 H   0  0  0  0  0  0  0  0  0  0  0  0
   -2.0120    1.4510   -1.1400 H   0  0  0  0  0  0  0  0  0  0  0  0
   -4.9790   -0.1600    1.4720 H   0  0  0  0  0  0  0  0  0  0  0  0
   -3.7610   -2.2990    1.5330 H   0  0  0  0  0  0  0  0  0  0  0  0
   -1.6690   -2.5620    0.2620 H   0  0  0  0  0  0  0  0  0  0  0  0
   -0.3240   -1.7770   -1.5990 H   0  0  0  0  0  0  0  0  0  0  0  0
   -0.4680   -0.1030   -2.1860 H   0  0  0  0  0  0  0  0  0  0  0  0
    1.9550    0.1430   -2.0790 H   0  0  0  0  0  0  0  0  0  0  0  0
    2.0990   -1.5310   -1.4920 H   0  0  0  0  0  0  0  0  0  0  0  0
    3.6450   -1.9520    0.6590 H   0  0  0  0  0  0  0  0  0  0  0  0
    5.5120   -0.4300    1.8820 H   0  0  0  0  0  0  0  0  0  0  0  0
    0.5960    0.5990   -0.1170 H   0  0  0  0  0  0  0  0  0  0  0  0
  4 13  1  0  0  0  0
  4  5  2  0  0  0  0
  5  6  1  0  0  0  0
  6  7  2  0  0  0  0
  7  8  1  0  0  0  0
  9 14  1  0  0  0  0
 10 14  1  0  0  0  0
  1 10  1  0  0  0  0
  1 11  2  0  0  0  0
 11 12  1  0  0  0  0
  2 12  2  0  0  0  0
  2 15  1  0  0  0  0
  8  9  1  0  0  0  0
  3  8  2  0  0  0  0
  3  4  1  0  0  0  0
  1 15  1  0  0  0  0
  2 16  1  0  0  0  0
  3 17  1  0  0  0  0
  5 18  1  0  0  0  0
  6 19  1  0  0  0  0
  7 20  1  0  0  0  0
  9 21  1  0  0  0  0
  9 22  1  0  0  0  0
 10 23  1  0  0  0  0
 10 24  1  0  0  0  0
 11 25  1  0  0  0  0
 12 26  1  0  0  0  0
 14 27  1  0  0  0  0
M  END
> <OPENEYE_ISO_SMILES>
c1cc(cc(c1)F)CNCc2ccco2

> <OPENEYE_INCHI>
InChI=1S/C12H12FNO/c13-11-4-1-3-10(7-11)8-14-9-12-5-2-6-15-12/h1-7,14H,8-9H2

> <OPENEYE_INCHIKEY>
AFHNQIFVWMDQAM-UHFFFAOYSA-N

> <FORMULA>
C12H12FNO

$$$$
