IMD
  -OEChem-02242320023D

 10 10  0     0  0  0  0  0  0999 V2000
    1.0760   -0.3410   -0.0020 N   0  0  0  0  0  0  0  0  0  0  0  0
    0.0000   -1.1110    0.0030 C   0  0  0  0  0  0  0  0  0  0  0  0
   -1.0760   -0.3410   -0.0020 N   0  3  0  0  0  0  0  0  0  0  0  0
   -0.6740    0.9470    0.0010 C   0  0  0  0  0  0  0  0  0  0  0  0
    0.6740    0.9470    0.0010 C   0  0  0  0  0  0  0  0  0  0  0  0
    1.9960   -0.6490   -0.0020 H   0  0  0  0  0  0  0  0  0  0  0  0
    0.0000   -2.1910    0.0020 H   0  0  0  0  0  0  0  0  0  0  0  0
   -1.9960   -0.6490   -0.0020 H   0  0  0  0  0  0  0  0  0  0  0  0
   -1.3140    1.8170    0.0020 H   0  0  0  0  0  0  0  0  0  0  0  0
    1.3140    1.8170    0.0020 H   0  0  0  0  0  0  0  0  0  0  0  0
  1  2  1  0  0  0  0
  1  5  1  0  0  0  0
  1  6  1  0  0  0  0
  2  3  2  0  0  0  0
  2  7  1  0  0  0  0
  3  4  1  0  0  0  0
  3  8  1  0  0  0  0
  4  5  2  0  0  0  0
  4  9  1  0  0  0  0
  5 10  1  0  0  0  0
M  CHG  1   3   1
M  END
> <OPENEYE_ISO_SMILES>
c1c[nH+]c[nH]1

> <OPENEYE_INCHI>
InChI=1S/C3H4N2/c1-2-5-3-4-1/h1-3H,(H,4,5)/p+1

> <OPENEYE_INCHIKEY>
RAXXELZNTBOGNW-UHFFFAOYSA-O

> <FORMULA>
C3H5N2+

$$$$
