TKV
  -OEChem-02242320043D

 70 71  0     1  0  0  0  0  0999 V2000
    4.5350    1.9520    0.5160 C   0  0  0  0  0  0  0  0  0  0  0  0
    4.4330    0.7230   -0.3900 C   0  0  0  0  0  0  0  0  0  0  0  0
    3.2400   -0.1310    0.0410 C   0  0  0  0  0  0  0  0  0  0  0  0
    0.8710    0.0410    0.2780 C   0  0  0  0  0  0  0  0  0  0  0  0
   -1.5470    0.0480    0.5760 C   0  0  1  0  0  0  0  0  0  0  0  0
   -1.7510    0.1600    2.0880 C   0  0  0  0  0  0  0  0  0  0  0  0
   -0.6490   -0.6180    2.8100 C   0  0  0  0  0  0  0  0  0  0  0  0
   -0.7790   -0.4040    4.3200 C   0  0  0  0  0  0  0  0  0  0  0  0
   -0.7840   -2.1080    2.4930 C   0  0  0  0  0  0  0  0  0  0  0  0
   -2.6990    0.7090   -0.1360 C   0  0  0  0  0  0  0  0  0  0  0  0
   -5.0760    0.9050   -0.6360 C   0  0  1  0  0  0  0  0  0  0  0  0
   -6.2310   -0.0890   -0.7700 C   0  0  0  0  0  0  0  0  0  0  0  0
   -5.8050   -1.2470   -1.6750 C   0  0  1  0  0  0  0  0  0  0  0  0
   -4.7100   -2.0580   -1.0190 C   0  0  0  0  0  0  0  0  0  0  0  0
   -6.6640   -3.2820   -0.7410 C   0  0  0  0  0  0  0  0  0  0  0  0
   -6.9670   -2.2510   -1.8520 C   0  0  0  0  0  0  0  0  0  0  0  0
   -5.5410    2.1220    0.1670 C   0  0  2  0  0  0  0  0  0  0  0  0
    4.2420    1.1730   -1.8400 C   0  0  0  0  0  0  0  0  0  0  0  0
    5.6980   -0.0890   -0.2790 C   0  0  0  0  0  0  0  0  0  0  0  0
    6.9140    0.4760   -0.6170 C   0  0  0  0  0  0  0  0  0  0  0  0
    8.0750   -0.2690   -0.5140 C   0  0  0  0  0  0  0  0  0  0  0  0
    8.0180   -1.5800   -0.0740 C   0  0  0  0  0  0  0  0  0  0  0  0
    6.8020   -2.1430    0.2640 C   0  0  0  0  0  0  0  0  0  0  0  0
    5.6430   -1.3960    0.1670 C   0  0  0  0  0  0  0  0  0  0  0  0
   -0.2960    0.7110    0.2010 N   0  0  0  0  0  0  0  0  0  0  0  0
   -3.9560    0.2620    0.0570 N   0  0  0  0  0  0  0  0  0  0  0  0
   -5.2180   -3.1930   -0.5100 N   0  0  0  0  0  0  0  0  0  0  0  0
    2.0210    0.6510   -0.0670 O   0  0  0  0  0  0  0  0  0  0  0  0
   -3.5430   -1.7310   -0.9610 O   0  0  0  0  0  0  0  0  0  0  0  0
   -6.6330    2.7490   -0.5090 O   0  0  0  0  0  0  0  0  0  0  0  0
   -2.4950    1.6420   -0.8840 O   0  0  0  0  0  0  0  0  0  0  0  0
    0.8850   -1.1130    0.6580 O   0  0  0  0  0  0  0  0  0  0  0  0
    9.6020    0.4390   -0.9390 Cl  0  0  0  0  0  0  0  0  0  0  0  0
   -4.1720    3.3010    0.3250 S   0  0  0  0  0  0  0  0  0  0  0  0
    4.6710    1.6310    1.5490 H   0  0  0  0  0  0  0  0  0  0  0  0
    5.3850    2.5600    0.2090 H   0  0  0  0  0  0  0  0  0  0  0  0
    3.6200    2.5390    0.4350 H   0  0  0  0  0  0  0  0  0  0  0  0
    3.1670   -1.0070   -0.6050 H   0  0  0  0  0  0  0  0  0  0  0  0
    3.3760   -0.4520    1.0740 H   0  0  0  0  0  0  0  0  0  0  0  0
   -1.5000   -1.0040    0.2930 H   0  0  0  0  0  0  0  0  0  0  0  0
   -1.7090    1.2080    2.3840 H   0  0  0  0  0  0  0  0  0  0  0  0
   -2.7230   -0.2550    2.3560 H   0  0  0  0  0  0  0  0  0  0  0  0
    0.3260   -0.2620    2.4750 H   0  0  0  0  0  0  0  0  0  0  0  0
   -1.7530   -0.7590    4.6550 H   0  0  0  0  0  0  0  0  0  0  0  0
    0.0070   -0.9570    4.8340 H   0  0  0  0  0  0  0  0  0  0  0  0
   -0.6820    0.6580    4.5460 H   0  0  0  0  0  0  0  0  0  0  0  0
   -1.7590   -2.4640    2.8280 H   0  0  0  0  0  0  0  0  0  0  0  0
   -0.6920   -2.2610    1.4180 H   0  0  0  0  0  0  0  0  0  0  0  0
    0.0010   -2.6620    3.0070 H   0  0  0  0  0  0  0  0  0  0  0  0
   -4.7550    1.2240   -1.6270 H   0  0  0  0  0  0  0  0  0  0  0  0
   -6.4930   -0.4760    0.2150 H   0  0  0  0  0  0  0  0  0  0  0  0
   -7.0950    0.4140   -1.2040 H   0  0  0  0  0  0  0  0  0  0  0  0
   -5.4730   -0.8700   -2.6430 H   0  0  0  0  0  0  0  0  0  0  0  0
   -7.2080   -3.0270    0.1680 H   0  0  0  0  0  0  0  0  0  0  0  0
   -6.9320   -4.2850   -1.0720 H   0  0  0  0  0  0  0  0  0  0  0  0
   -7.9300   -1.7680   -1.6840 H   0  0  0  0  0  0  0  0  0  0  0  0
   -6.9330   -2.7180   -2.8360 H   0  0  0  0  0  0  0  0  0  0  0  0
   -5.8620    1.8020    1.1580 H   0  0  0  0  0  0  0  0  0  0  0  0
    3.3270    1.7600   -1.9210 H   0  0  0  0  0  0  0  0  0  0  0  0
    5.0930    1.7810   -2.1470 H   0  0  0  0  0  0  0  0  0  0  0  0
    4.1700    0.2970   -2.4850 H   0  0  0  0  0  0  0  0  0  0  0  0
    6.9570    1.4990   -0.9610 H   0  0  0  0  0  0  0  0  0  0  0  0
    8.9240   -2.1620    0.0060 H   0  0  0  0  0  0  0  0  0  0  0  0
    6.7580   -3.1660    0.6070 H   0  0  0  0  0  0  0  0  0  0  0  0
    4.6940   -1.8360    0.4350 H   0  0  0  0  0  0  0  0  0  0  0  0
   -0.3080    1.6320   -0.1020 H   0  0  0  0  0  0  0  0  0  0  0  0
   -4.1200   -0.4840    0.6540 H   0  0  0  0  0  0  0  0  0  0  0  0
   -4.6950   -3.8680   -0.0480 H   0  0  0  0  0  0  0  0  0  0  0  0
   -7.4030    2.1750   -0.6290 H   0  0  0  0  0  0  0  0  0  0  0  0
   -3.2310    2.5870    0.9680 H   0  0  0  0  0  0  0  0  0  0  0  0
  7  8  1  0  0  0  0
  6  7  1  0  0  0  0
  7  9  1  0  0  0  0
  5  6  1  0  0  0  0
 10 31  2  0  0  0  0
  2 18  1  0  0  0  0
  5 25  1  0  0  0  0
  4 25  1  0  0  0  0
 17 30  1  0  0  0  0
  5 10  1  0  0  0  0
  4 28  1  0  0  0  0
  3 28  1  0  0  0  0
 10 26  1  0  0  0  0
  4 32  2  0  0  0  0
  2  3  1  0  0  0  0
  1  2  1  0  0  0  0
  2 19  1  0  0  0  0
 19 24  2  0  0  0  0
 23 24  1  0  0  0  0
 11 26  1  0  0  0  0
 11 17  1  0  0  0  0
 11 12  1  0  0  0  0
 15 16  1  0  0  0  0
 13 16  1  0  0  0  0
 19 20  1  0  0  0  0
 15 27  1  0  0  0  0
 22 23  2  0  0  0  0
 12 13  1  0  0  0  0
 13 14  1  0  0  0  0
 20 21  2  0  0  0  0
 14 27  1  0  0  0  0
 21 22  1  0  0  0  0
 14 29  2  0  0  0  0
 21 33  1  0  0  0  0
 17 34  1  0  0  0  0
  1 35  1  0  0  0  0
  1 36  1  0  0  0  0
  1 37  1  0  0  0  0
  3 38  1  0  0  0  0
  3 39  1  0  0  0  0
  5 40  1  0  0  0  0
  6 41  1  0  0  0  0
  6 42  1  0  0  0  0
  7 43  1  0  0  0  0
  8 44  1  0  0  0  0
  8 45  1  0  0  0  0
  8 46  1  0  0  0  0
  9 47  1  0  0  0  0
  9 48  1  0  0  0  0
  9 49  1  0  0  0  0
 11 50  1  0  0  0  0
 12 51  1  0  0  0  0
 12 52  1  0  0  0  0
 13 53  1  0  0  0  0
 15 54  1  0  0  0  0
 15 55  1  0  0  0  0
 16 56  1  0  0  0  0
 16 57  1  0  0  0  0
 17 58  1  0  0  0  0
 18 59  1  0  0  0  0
 18 60  1  0  0  0  0
 18 61  1  0  0  0  0
 20 62  1  0  0  0  0
 22 63  1  0  0  0  0
 23 64  1  0  0  0  0
 24 65  1  0  0  0  0
 25 66  1  0  0  0  0
 26 67  1  0  0  0  0
 27 68  1  0  0  0  0
 30 69  1  0  0  0  0
 34 70  1  0  0  0  0
M  END
> <OPENEYE_ISO_SMILES>
CC(C)C[C@@H](C(=O)N[C@@H](C[C@@H]1CCNC1=O)[C@H](O)S)NC(=O)OCC(C)(C)c2cccc(c2)Cl

> <OPENEYE_INCHI>
InChI=1S/C24H36ClN3O5S/c1-14(2)10-18(21(30)27-19(22(31)34)11-15-8-9-26-20(15)29)28-23(32)33-13-24(3,4)16-6-5-7-17(25)12-16/h5-7,12,14-15,18-19,22,31,34H,8-11,13H2,1-4H3,(H,26,29)(H,27,30)(H,28,32)/t15-,18-,19-,22+/m0/s1

> <OPENEYE_INCHIKEY>
FWBMORCRUXMTGS-SXTKRDDTSA-N

> <FORMULA>
C24H36ClN3O5S

$$$$
