@<TRIPOS>MOLECULE
/home/pku/3cl/gett_pdb/7FR9/7FR9_mol2/ligand/7FR9_WXK.pdb
 32 34 0 0 0
SMALL
GASTEIGER

@<TRIPOS>ATOM
      1  C17      -47.1040  -29.5310    6.5230 C.ar  201  WXK201      0.2633
      2  C14      -49.5830  -29.2100    6.6640 C.ar  201  WXK201      0.3283
      3  C12      -48.4140  -29.1640    4.3910 C.ar  201  WXK201      0.1472
      4  C10      -47.4720  -29.1030    2.2740 C.ar  201  WXK201      0.0562
      5  C20      -46.0240  -29.4670    4.1960 C.ar  201  WXK201     -0.0180
      6  C19      -47.1910  -29.3850    5.0010 C.ar  201  WXK201      0.0836
      7  C01      -42.3580  -32.0800    0.8970 C.3   201  WXK201     -0.0452
      8  C02      -43.6620  -31.8830    1.6870 C.3   201  WXK201      0.0373
      9  C03      -44.2250  -33.0820    2.4520 C.3   201  WXK201     -0.0316
     10  C04      -43.5730  -31.9290    3.2180 C.3   201  WXK201     -0.0316
     11  C09      -46.1950  -29.3160    2.8090 C.ar  201  WXK201      0.1241
     12  N05      -44.6950  -31.0260    1.1230 N.3   201  WXK201     -0.1841
     13  N11      -48.5420  -29.0310    3.0500 N.ar  201  WXK201     -0.2353
     14  N13      -49.6520  -29.0760    5.2090 N.ar  201  WXK201     -0.2919
     15  N16      -48.3030  -29.4430    7.3030 N.ar  201  WXK201     -0.2745
     16  O07      -44.8530  -28.4540    0.5700 O.2   201  WXK201     -0.1530
     17  O08      -43.5400  -29.0220    2.3730 O.2   201  WXK201     -0.1530
     18  O15      -50.5750  -29.1390    7.3140 O.2   201  WXK201     -0.2466
     19  O18      -46.0540  -29.7170    7.0490 O.2   201  WXK201     -0.2670
     20  S06      -44.7700  -29.4100    1.6790 S.O2  201  WXK201      0.0603
     21 H101      -47.5810  -29.0020    1.2030 H     201  WXK201      0.0850
     22 H201      -45.0420  -29.6430    4.6410 H     201  WXK201      0.0646
     23 H011      -42.5680  -32.7100    0.0260 H     201  WXK201      0.0248
     24 H012      -41.6110  -32.5400    1.5410 H     201  WXK201      0.0248
     25 H013      -41.9940  -31.1180    0.5570 H     201  WXK201      0.0248
     26 H031      -43.6450  -33.9950    2.3880 H     201  WXK201      0.0284
     27 H032      -45.3150  -33.1310    2.5030 H     201  WXK201      0.0284
     28 H042      -44.2650  -31.2870    3.7520 H     201  WXK201      0.0284
     29 H041      -42.5910  -32.1370    3.6370 H     201  WXK201      0.0284
     30 H051      -45.5230  -31.4650    0.7890 H     201  WXK201      0.1486
     31 H131      -50.5320  -28.9230    4.7470 H     201  WXK201      0.1718
     32 H161      -48.2590  -29.5420    8.2960 H     201  WXK201      0.1734
@<TRIPOS>BOND
     1    23     7    1
     2    25     7    1
     3    16    20    2
     4    30    12    1
     5     7    24    1
     6     7     8    1
     7    12    20    1
     8    12     8    1
     9    21     4    1
    10    20    17    2
    11    20    11    1
    12     8     9    1
    13     8    10    1
    14     4    11   ar
    15     4    13   ar
    16    26     9    1
    17     9    27    1
    18     9    10    1
    19    11     5   ar
    20    13     3   ar
    21    10    29    1
    22    10    28    1
    23     5    22    1
    24     5     6   ar
    25     3     6   ar
    26     3    14   ar
    27    31    14    1
    28     6     1   ar
    29    14     2   ar
    30     1    19    2
    31     1    15   ar
    32     2    15   ar
    33     2    18    2
    34    15    32    1
