DDG
  -OEChem-02242320023D

 36 38  0     1  0  0  0  0  0999 V2000
   -0.9780   -1.7120    5.7360 O   0  0  0  0  0  0  0  0  0  0  0  0
   -0.4990   -0.3490    5.0250 P   0  0  0  0  0  0  0  0  0  0  0  0
   -1.6790    0.4930    4.7300 O   0  0  0  0  0  0  0  0  0  0  0  0
    0.4970    0.4460    6.0060 O   0  0  0  0  0  0  0  0  0  0  0  0
    0.2650   -0.7000    3.6520 O   0  0  0  0  0  0  0  0  0  0  0  0
    0.6630    0.5430    3.0710 C   0  0  0  0  0  0  0  0  0  0  0  0
    1.4000    0.2790    1.7570 C   0  0  1  0  0  0  0  0  0  0  0  0
    0.5080   -0.2980    0.7760 O   0  0  0  0  0  0  0  0  0  0  0  0
    1.8440    1.6120    1.1030 C   0  0  0  0  0  0  0  0  0  0  0  0
    1.9570    1.2200   -0.3890 C   0  0  0  0  0  0  0  0  0  0  0  0
    1.0870   -0.0450   -0.5140 C   0  0  2  0  0  0  0  0  0  0  0  0
    0.0270    0.1730   -1.5010 N   0  0  0  0  0  0  0  0  0  0  0  0
   -1.2160    0.6750   -1.2510 C   0  0  0  0  0  0  0  0  0  0  0  0
   -1.8980    0.7340   -2.3570 N   0  0  0  0  0  0  0  0  0  0  0  0
   -1.1360    0.2750   -3.3800 C   0  0  0  0  0  0  0  0  0  0  0  0
   -1.3460    0.1100   -4.7690 C   0  0  0  0  0  0  0  0  0  0  0  0
   -2.4110    0.4130   -5.2800 O   0  0  0  0  0  0  0  0  0  0  0  0
   -0.3360   -0.3860   -5.5160 N   0  0  0  0  0  0  0  0  0  0  0  0
    0.8470   -0.7270   -4.9330 C   0  0  0  0  0  0  0  0  0  0  0  0
    1.8540   -1.2350   -5.7170 N   0  0  0  0  0  0  0  0  0  0  0  0
    1.0550   -0.5790   -3.6440 N   0  0  0  0  0  0  0  0  0  0  0  0
    0.1030   -0.0880   -2.8420 C   0  0  0  0  0  0  0  0  0  0  0  0
   -1.4300   -1.4580    6.5520 H   0  0  0  0  0  0  0  0  0  0  0  0
    1.2500   -0.1370    6.1730 H   0  0  0  0  0  0  0  0  0  0  0  0
    1.3240    1.0700    3.7590 H   0  0  0  0  0  0  0  0  0  0  0  0
   -0.2190    1.1520    2.8780 H   0  0  0  0  0  0  0  0  0  0  0  0
    2.2580   -0.3710    1.9230 H   0  0  0  0  0  0  0  0  0  0  0  0
    2.8090    1.9350    1.4950 H   0  0  0  0  0  0  0  0  0  0  0  0
    1.0890    2.3860    1.2460 H   0  0  0  0  0  0  0  0  0  0  0  0
    2.9930    0.9980   -0.6480 H   0  0  0  0  0  0  0  0  0  0  0  0
    1.5660    2.0150   -1.0230 H   0  0  0  0  0  0  0  0  0  0  0  0
    1.7050   -0.8910   -0.8150 H   0  0  0  0  0  0  0  0  0  0  0  0
   -1.5800    0.9790   -0.2810 H   0  0  0  0  0  0  0  0  0  0  0  0
   -0.4570   -0.5080   -6.4710 H   0  0  0  0  0  0  0  0  0  0  0  0
    2.7030   -1.4780   -5.3170 H   0  0  0  0  0  0  0  0  0  0  0  0
    1.7140   -1.3540   -6.6690 H   0  0  0  0  0  0  0  0  0  0  0  0
  1  2  1  0  0  0  0
  1 23  1  0  0  0  0
  2  3  2  0  0  0  0
  2  4  1  0  0  0  0
  2  5  1  0  0  0  0
  4 24  1  0  0  0  0
  5  6  1  0  0  0  0
  6  7  1  0  0  0  0
  6 25  1  0  0  0  0
  6 26  1  0  0  0  0
  7  8  1  0  0  0  0
  7  9  1  0  0  0  0
  7 27  1  0  0  0  0
  8 11  1  0  0  0  0
  9 10  1  0  0  0  0
  9 28  1  0  0  0  0
  9 29  1  0  0  0  0
 10 11  1  0  0  0  0
 10 30  1  0  0  0  0
 10 31  1  0  0  0  0
 11 12  1  0  0  0  0
 11 32  1  0  0  0  0
 12 13  1  0  0  0  0
 12 22  1  0  0  0  0
 13 14  2  0  0  0  0
 13 33  1  0  0  0  0
 14 15  1  0  0  0  0
 15 16  1  0  0  0  0
 15 22  2  0  0  0  0
 16 17  2  0  0  0  0
 16 18  1  0  0  0  0
 18 19  1  0  0  0  0
 18 34  1  0  0  0  0
 19 20  1  0  0  0  0
 19 21  2  0  0  0  0
 20 35  1  0  0  0  0
 20 36  1  0  0  0  0
 21 22  1  0  0  0  0
M  END
> <OPENEYE_ISO_SMILES>
c1nc2c(=O)[nH]c(nc2n1[C@H]3CC[C@H](O3)COP(=O)(O)O)N

> <OPENEYE_INCHI>
InChI=1S/C10H14N5O6P/c11-10-13-8-7(9(16)14-10)12-4-15(8)6-2-1-5(21-6)3-20-22(17,18)19/h4-6H,1-3H2,(H2,17,18,19)(H3,11,13,14,16)/t5-,6+/m0/s1

> <OPENEYE_INCHIKEY>
SDMRBYKCQICSIT-NTSWFWBYSA-N

> <FORMULA>
C10H14N5O6P

$$$$
