MRG
  -OEChem-02242320033D

 47 49  0     1  0  0  0  0  0999 V2000
    4.0550    1.1450    5.3020 P   0  0  0  0  0  0  0  0  0  0  0  0
    3.2140    1.4930    6.4950 O   0  0  0  0  0  0  0  0  0  0  0  0
    4.7510    2.4000    4.5560 O   0  0  0  0  0  0  0  0  0  0  0  0
    3.2690    0.3790    4.1110 O   0  0  0  0  0  0  0  0  0  0  0  0
    1.8180    1.9230   -0.0490 N   0  0  0  0  0  0  0  0  0  0  0  0
    1.2030    2.4560   -1.1460 C   0  0  0  0  0  0  0  0  0  0  0  0
    0.7380    1.7640   -2.2100 N   0  0  0  0  0  0  0  0  0  0  0  0
    0.1900    2.5340   -3.1250 C   0  0  0  0  0  0  0  0  0  0  0  0
    0.1070    3.9400   -2.9890 N   0  0  0  0  0  0  0  0  0  0  0  0
    0.5830    4.6770   -1.8950 C   0  0  0  0  0  0  0  0  0  0  0  0
    0.5120    5.8930   -1.7740 O   0  0  0  0  0  0  0  0  0  0  0  0
    1.1750    3.8100   -0.9140 C   0  0  0  0  0  0  0  0  0  0  0  0
    1.7460    4.1380    0.2790 N   0  0  0  0  0  0  0  0  0  0  0  0
    2.1250    2.9780    0.7790 C   0  0  0  0  0  0  0  0  0  0  0  0
   -0.3420    2.0240   -4.2800 N   0  0  0  0  0  0  0  0  0  0  0  0
   -0.3170    0.6130   -4.5310 C   0  0  0  0  0  0  0  0  0  0  0  0
   -0.8790    0.2440   -5.9020 C   0  0  0  0  0  0  0  0  0  0  0  0
   -2.3440    0.6480   -6.0590 C   0  0  0  0  0  0  0  0  0  0  0  0
   -2.9620    0.1870   -7.7050 S   0  0  0  0  0  0  0  0  0  0  0  0
    3.4870    0.0640   -0.2290 C   0  0  0  0  0  0  0  0  0  0  0  0
    3.9920    0.0140    2.9490 C   0  0  0  0  0  0  0  0  0  0  0  0
    3.0450   -0.6860    1.9850 C   0  0  1  0  0  0  0  0  0  0  0  0
    2.0070    0.2480    1.6200 O   0  0  0  0  0  0  0  0  0  0  0  0
    2.1010    0.5160    0.2110 C   0  0  1  0  0  0  0  0  0  0  0  0
    3.7310   -1.1100    0.6900 C   0  0  1  0  0  0  0  0  0  0  0  0
    3.0680   -2.2510    0.1500 O   0  0  0  0  0  0  0  0  0  0  0  0
    5.2990    0.1570    5.6080 O   0  0  0  0  0  0  0  0  0  0  0  0
    5.2370    3.0610    5.0940 H   0  0  0  0  0  0  0  0  0  0  0  0
   -0.3330    4.4570   -3.7440 H   0  0  0  0  0  0  0  0  0  0  0  0
    2.6230    2.8340    1.7290 H   0  0  0  0  0  0  0  0  0  0  0  0
   -0.7350    2.6770   -4.9120 H   0  0  0  0  0  0  0  0  0  0  0  0
   -0.8720    0.1200   -3.7270 H   0  0  0  0  0  0  0  0  0  0  0  0
    0.7300    0.2990   -4.4660 H   0  0  0  0  0  0  0  0  0  0  0  0
   -0.2700    0.7150   -6.6850 H   0  0  0  0  0  0  0  0  0  0  0  0
   -0.7860   -0.8430   -6.0250 H   0  0  0  0  0  0  0  0  0  0  0  0
   -2.4710    1.7280   -5.9410 H   0  0  0  0  0  0  0  0  0  0  0  0
   -2.9640    0.1490   -5.3080 H   0  0  0  0  0  0  0  0  0  0  0  0
   -2.1920   -0.9000   -7.8440 H   0  0  0  0  0  0  0  0  0  0  0  0
    4.2260    0.8510   -0.0380 H   0  0  0  0  0  0  0  0  0  0  0  0
    3.5110   -0.1880   -1.2940 H   0  0  0  0  0  0  0  0  0  0  0  0
    4.4020    0.9130    2.4850 H   0  0  0  0  0  0  0  0  0  0  0  0
    4.8060   -0.6560    3.2290 H   0  0  0  0  0  0  0  0  0  0  0  0
    2.5700   -1.5320    2.4930 H   0  0  0  0  0  0  0  0  0  0  0  0
    1.3110   -0.0480   -0.2960 H   0  0  0  0  0  0  0  0  0  0  0  0
    4.7870   -1.3630    0.8100 H   0  0  0  0  0  0  0  0  0  0  0  0
    2.1180   -2.0590    0.1840 H   0  0  0  0  0  0  0  0  0  0  0  0
    5.8870    0.3560    6.3670 H   0  0  0  0  0  0  0  0  0  0  0  0
  1  2  2  0  0  0  0
  1  3  1  0  0  0  0
  1  4  1  0  0  0  0
  1 27  1  0  0  0  0
  3 28  1  0  0  0  0
  4 21  1  0  0  0  0
  5  6  1  0  0  0  0
  5 14  1  0  0  0  0
  5 24  1  0  0  0  0
  6  7  1  0  0  0  0
  6 12  2  0  0  0  0
  7  8  2  0  0  0  0
  8  9  1  0  0  0  0
  8 15  1  0  0  0  0
  9 10  1  0  0  0  0
  9 29  1  0  0  0  0
 10 11  2  0  0  0  0
 10 12  1  0  0  0  0
 12 13  1  0  0  0  0
 13 14  2  0  0  0  0
 14 30  1  0  0  0  0
 15 16  1  0  0  0  0
 15 31  1  0  0  0  0
 16 17  1  0  0  0  0
 16 32  1  0  0  0  0
 16 33  1  0  0  0  0
 17 18  1  0  0  0  0
 17 34  1  0  0  0  0
 17 35  1  0  0  0  0
 18 19  1  0  0  0  0
 18 36  1  0  0  0  0
 18 37  1  0  0  0  0
 19 38  1  0  0  0  0
 20 24  1  0  0  0  0
 20 25  1  0  0  0  0
 20 39  1  0  0  0  0
 20 40  1  0  0  0  0
 21 22  1  0  0  0  0
 21 41  1  0  0  0  0
 21 42  1  0  0  0  0
 22 23  1  0  0  0  0
 22 25  1  0  0  0  0
 22 43  1  0  0  0  0
 23 24  1  0  0  0  0
 24 44  1  0  0  0  0
 25 26  1  0  0  0  0
 25 45  1  0  0  0  0
 26 46  1  0  0  0  0
 27 47  1  0  0  0  0
M  END
> <OPENEYE_ISO_SMILES>
c1nc2c(=O)[nH]c(nc2n1[C@H]3C[C@@H]([C@H](O3)COP(=O)(O)O)O)NCCCS

> <OPENEYE_INCHI>
InChI=1S/C13H20N5O7PS/c19-7-4-9(25-8(7)5-24-26(21,22)23)18-6-15-10-11(18)16-13(17-12(10)20)14-2-1-3-27/h6-9,19,27H,1-5H2,(H2,21,22,23)(H2,14,16,17,20)/t7-,8+,9+/m0/s1

> <OPENEYE_INCHIKEY>
WHYGVXCTIDHHFD-DJLDLDEBSA-N

> <FORMULA>
C13H20N5O7PS

$$$$
