RE5
  -OEChem-02242320043D

 49 50  0     1  0  0  0  0  0999 V2000
   -2.5730   -1.0480   -0.1440 C   0  0  2  0  0  0  0  0  0  0  0  0
   -2.2760   -2.4250   -0.6800 C   0  0  0  0  0  0  0  0  0  0  0  0
   -4.0870   -0.8660   -0.0170 C   0  0  0  0  0  0  0  0  0  0  0  0
   -4.3850    0.4810    0.6440 C   0  0  0  0  0  0  0  0  0  0  0  0
   -5.8760    0.6610    0.7690 C   0  0  0  0  0  0  0  0  0  0  0  0
    0.1260    1.7160   -1.7430 C   0  0  0  0  0  0  0  0  0  0  0  0
    1.5940    2.9060   -0.2680 C   0  0  2  0  0  0  0  0  0  0  0  0
    1.4270    4.3620   -0.7090 C   0  0  0  0  0  0  0  0  0  0  0  0
    2.9720    2.7210    0.3690 C   0  0  0  0  0  0  0  0  0  0  0  0
    3.4610    0.2430    0.1930 C   0  0  0  0  0  0  0  0  0  0  0  0
    4.1390   -1.2140   -1.4500 C   0  0  0  0  0  0  0  0  0  0  0  0
    3.7730   -2.1040    0.6480 C   0  0  0  0  0  0  0  0  0  0  0  0
    3.4280   -0.8220    1.1090 C   0  0  0  0  0  0  0  0  0  0  0  0
    2.8410    0.9690    2.1810 C   0  0  0  0  0  0  0  0  0  0  0  0
   -2.0330   -0.0380   -1.0630 N   0  0  0  0  0  0  0  0  0  0  0  0
    3.0860    1.3590    0.8980 N   0  0  0  0  0  0  0  0  0  0  0  0
    3.8190    0.0040   -1.0640 N   0  0  0  0  0  0  0  0  0  0  0  0
    4.1220   -2.2460   -0.6270 N   0  0  0  0  0  0  0  0  0  0  0  0
    3.7580   -3.1920    1.5030 N   0  0  0  0  0  0  0  0  0  0  0  0
    3.0410   -0.3110    2.3030 N   0  0  0  0  0  0  0  0  0  0  0  0
   -0.5840    1.0510    0.7800 O   0  0  0  0  0  0  0  0  0  0  0  0
   -1.6770   -2.5510   -1.7220 O   0  0  0  0  0  0  0  0  0  0  0  0
   -2.6780   -3.5110   -0.0020 O   0  0  0  0  0  0  0  0  0  0  0  0
   -6.6230   -0.2000    0.3700 O   0  0  0  0  0  0  0  0  0  0  0  0
   -6.3730    1.7780    1.3230 O   0  0  0  0  0  0  0  0  0  0  0  0
    1.4740    2.0480   -1.4040 O   0  0  0  0  0  0  0  0  0  0  0  0
    0.4950   -0.7990   -0.5550 O   0  0  0  0  0  0  0  0  0  0  0  0
   -0.5020    0.4640   -0.5760 P   0  0  2  0  0  0  0  0  0  0  0  0
   -2.1100   -0.9330    0.8360 H   0  0  0  0  0  0  0  0  0  0  0  0
   -4.5400   -0.8930   -1.0080 H   0  0  0  0  0  0  0  0  0  0  0  0
   -4.5000   -1.6690    0.5940 H   0  0  0  0  0  0  0  0  0  0  0  0
   -3.9310    0.5080    1.6350 H   0  0  0  0  0  0  0  0  0  0  0  0
   -3.9720    1.2840    0.0330 H   0  0  0  0  0  0  0  0  0  0  0  0
   -0.4940    2.6100   -1.6850 H   0  0  0  0  0  0  0  0  0  0  0  0
    0.0940    1.3160   -2.7560 H   0  0  0  0  0  0  0  0  0  0  0  0
    0.8210    2.6560    0.4590 H   0  0  0  0  0  0  0  0  0  0  0  0
    0.4820    4.4750   -1.2400 H   0  0  0  0  0  0  0  0  0  0  0  0
    1.4310    5.0100    0.1680 H   0  0  0  0  0  0  0  0  0  0  0  0
    2.2500    4.6380   -1.3680 H   0  0  0  0  0  0  0  0  0  0  0  0
    3.7450    2.8840   -0.3820 H   0  0  0  0  0  0  0  0  0  0  0  0
    3.0970    3.4370    1.1810 H   0  0  0  0  0  0  0  0  0  0  0  0
    4.4290   -1.3730   -2.4780 H   0  0  0  0  0  0  0  0  0  0  0  0
    2.5260    1.6250    2.9790 H   0  0  0  0  0  0  0  0  0  0  0  0
   -2.6620    0.7480   -1.1460 H   0  0  0  0  0  0  0  0  0  0  0  0
    3.5080   -3.0740    2.4330 H   0  0  0  0  0  0  0  0  0  0  0  0
    3.9990   -4.0720    1.1730 H   0  0  0  0  0  0  0  0  0  0  0  0
   -2.4640   -4.3730   -0.3860 H   0  0  0  0  0  0  0  0  0  0  0  0
   -7.3360    1.8480    1.3810 H   0  0  0  0  0  0  0  0  0  0  0  0
    0.5970   -1.2340   -1.4130 H   0  0  0  0  0  0  0  0  0  0  0  0
  7  8  1  0  0  0  0
 11 18  2  0  0  0  0
 11 17  1  0  0  0  0
 21 28  2  0  0  0  0
  2 22  2  0  0  0  0
 12 18  1  0  0  0  0
 10 17  2  0  0  0  0
  2 23  1  0  0  0  0
  1  2  1  0  0  0  0
  7 26  1  0  0  0  0
  7  9  1  0  0  0  0
 27 28  1  0  0  0  0
 15 28  1  0  0  0  0
  6 28  1  0  0  0  0
 12 19  1  0  0  0  0
 12 13  2  0  0  0  0
 10 13  1  0  0  0  0
 10 16  1  0  0  0  0
  6 26  1  0  0  0  0
 13 20  1  0  0  0  0
  9 16  1  0  0  0  0
  1 15  1  0  0  0  0
 14 16  1  0  0  0  0
  1  3  1  0  0  0  0
 14 20  2  0  0  0  0
  3  4  1  0  0  0  0
  4  5  1  0  0  0  0
  5 24  2  0  0  0  0
  5 25  1  0  0  0  0
  1 29  1  0  0  0  0
  3 30  1  0  0  0  0
  3 31  1  0  0  0  0
  4 32  1  0  0  0  0
  4 33  1  0  0  0  0
  6 34  1  0  0  0  0
  6 35  1  0  0  0  0
  7 36  1  0  0  0  0
  8 37  1  0  0  0  0
  8 38  1  0  0  0  0
  8 39  1  0  0  0  0
  9 40  1  0  0  0  0
  9 41  1  0  0  0  0
 11 42  1  0  0  0  0
 14 43  1  0  0  0  0
 15 44  1  0  0  0  0
 19 45  1  0  0  0  0
 19 46  1  0  0  0  0
 23 47  1  0  0  0  0
 25 48  1  0  0  0  0
 27 49  1  0  0  0  0
M  END
> <OPENEYE_ISO_SMILES>
C[C@H](Cn1cnc2c1ncnc2N)OC[P@@](=O)(N[C@@H](CCC(=O)O)C(=O)O)O

> <OPENEYE_INCHI>
InChI=1S/C14H21N6O7P/c1-8(4-20-6-18-11-12(15)16-5-17-13(11)20)27-7-28(25,26)19-9(14(23)24)2-3-10(21)22/h5-6,8-9H,2-4,7H2,1H3,(H,21,22)(H,23,24)(H2,15,16,17)(H2,19,25,26)/t8-,9+/m1/s1

> <OPENEYE_INCHIKEY>
CIXAAKVRZFPIJB-BDAKNGLRSA-N

> <FORMULA>
C14H21N6O7P

$$$$
