O0S
  -OEChem-02242320033D

 28 29  0     0  0  0  0  0  0999 V2000
   -3.9750    0.7800    0.2270 N   0  0  0  0  0  0  0  0  0  0  0  0
   -0.0940    0.4900   -1.3300 C   0  0  0  0  0  0  0  0  0  0  0  0
   -0.4630    1.0200   -0.1010 C   0  0  0  0  0  0  0  0  0  0  0  0
   -2.7030    0.4310    0.1190 C   0  0  0  0  0  0  0  0  0  0  0  0
   -4.9300   -0.1360    0.2320 C   0  0  0  0  0  0  0  0  0  0  0  0
   -4.5840   -1.4730    0.1220 C   0  0  0  0  0  0  0  0  0  0  0  0
    0.4810    1.1660    0.9040 C   0  0  0  0  0  0  0  0  0  0  0  0
    3.4880   -0.1310   -0.7710 N   0  0  0  0  0  0  0  0  0  0  0  0
    5.7310   -0.7820    0.0430 C   0  0  0  0  0  0  0  0  0  0  0  0
    3.7950   -0.5880    1.3780 O   0  0  0  0  0  0  0  0  0  0  0  0
    4.2690   -0.4940    0.2660 C   0  0  0  0  0  0  0  0  0  0  0  0
    1.7900    0.7850    0.6830 C   0  0  0  0  0  0  0  0  0  0  0  0
    2.1610    0.2560   -0.5460 C   0  0  0  0  0  0  0  0  0  0  0  0
    1.2150    0.1090   -1.5520 C   0  0  0  0  0  0  0  0  0  0  0  0
   -3.2420   -1.8030    0.0100 C   0  0  0  0  0  0  0  0  0  0  0  0
   -2.3390   -0.8360    0.0110 N   0  0  0  0  0  0  0  0  0  0  0  0
   -1.7520    1.3950    0.1170 O   0  0  0  0  0  0  0  0  0  0  0  0
   -0.8310    0.3720   -2.1100 H   0  0  0  0  0  0  0  0  0  0  0  0
   -5.9660    0.1550    0.3220 H   0  0  0  0  0  0  0  0  0  0  0  0
   -5.3430   -2.2420    0.1240 H   0  0  0  0  0  0  0  0  0  0  0  0
    0.1930    1.5790    1.8600 H   0  0  0  0  0  0  0  0  0  0  0  0
    3.8450   -0.1380   -1.6730 H   0  0  0  0  0  0  0  0  0  0  0  0
    6.2200    0.1060   -0.3570 H   0  0  0  0  0  0  0  0  0  0  0  0
    6.1960   -1.0570    0.9900 H   0  0  0  0  0  0  0  0  0  0  0  0
    5.8360   -1.6040   -0.6650 H   0  0  0  0  0  0  0  0  0  0  0  0
    2.5260    0.9000    1.4650 H   0  0  0  0  0  0  0  0  0  0  0  0
    1.5010   -0.3070   -2.5070 H   0  0  0  0  0  0  0  0  0  0  0  0
   -2.9380   -2.8350   -0.0780 H   0  0  0  0  0  0  0  0  0  0  0  0
 15 16  2  0  0  0  0
  4 16  1  0  0  0  0
  4 17  1  0  0  0  0
  3 17  1  0  0  0  0
  3  7  2  0  0  0  0
  7 12  1  0  0  0  0
  6 15  1  0  0  0  0
  1  4  2  0  0  0  0
  2  3  1  0  0  0  0
 12 13  2  0  0  0  0
  2 14  2  0  0  0  0
  5  6  2  0  0  0  0
  1  5  1  0  0  0  0
  8 13  1  0  0  0  0
 13 14  1  0  0  0  0
  8 11  1  0  0  0  0
  9 11  1  0  0  0  0
 10 11  2  0  0  0  0
  2 18  1  0  0  0  0
  5 19  1  0  0  0  0
  6 20  1  0  0  0  0
  7 21  1  0  0  0  0
  8 22  1  0  0  0  0
  9 23  1  0  0  0  0
  9 24  1  0  0  0  0
  9 25  1  0  0  0  0
 12 26  1  0  0  0  0
 14 27  1  0  0  0  0
 15 28  1  0  0  0  0
M  END
> <OPENEYE_ISO_SMILES>
CC(=O)Nc1ccc(cc1)Oc2ncccn2

> <OPENEYE_INCHI>
InChI=1S/C12H11N3O2/c1-9(16)15-10-3-5-11(6-4-10)17-12-13-7-2-8-14-12/h2-8H,1H3,(H,15,16)

> <OPENEYE_INCHIKEY>
DXVKZDBYLFVMFB-UHFFFAOYSA-N

> <FORMULA>
C12H11N3O2

$$$$
