@<TRIPOS>MOLECULE
/home/pku/3cl/gett_pdb/6XQT/6XQT_mol2/ligand/6XQT_NNA.pdb
 49 52 0 0 0
SMALL
GASTEIGER

@<TRIPOS>ATOM
      1  C1       -13.9720    4.2490   44.9980 C.2   401  NNA401      0.3396
      2  O2       -14.7810    3.6680   45.6560 O.2   401  NNA401     -0.2492
      3  N3       -13.0550    5.2780   45.5730 N.am  401  NNA401     -0.1889
      4  C4       -13.0860    5.6950   47.0140 C.3   401  NNA401      0.1021
      5  C5       -11.9150    6.6640   47.2070 C.3   401  NNA401      0.0218
      6  C6       -13.0340    4.4650   47.9650 C.3   401  NNA401      0.0218
      7  C7       -10.6080    5.8630   47.1200 C.3   401  NNA401      0.0018
      8  C8       -11.6440    3.9240   48.3640 C.3   401  NNA401      0.0018
      9  C9       -10.5260    4.9730   48.3630 C.3   401  NNA401      0.0001
     10  C10      -14.4190    6.4920   47.2100 C.3   401  NNA401      0.1705
     11  S11      -14.6670    7.8920   46.0180 S.O2  401  NNA401     -0.0115
     12  O12      -13.9740    7.3550   44.8240 O.2   401  NNA401     -0.1730
     13  O13      -14.0010    9.0510   46.7430 O.2   401  NNA401     -0.1730
     14  C14      -16.5120    8.0700   45.8360 C.3   401  NNA401      0.1108
     15  C15      -17.0980    6.7680   45.1830 C.3   401  NNA401      0.0236
     16  C16      -17.1380    8.2880   47.2530 C.3   401  NNA401      0.0236
     17  C17      -16.7480    9.3200   44.9270 C.3   401  NNA401      0.0236
     18  N18      -13.8570    3.9610   43.5420 N.am  401  NNA401     -0.1796
     19  C19      -14.7440    2.9510   43.0080 C.3   401  NNA401      0.1727
     20  C20      -15.3140    3.3570   41.6280 C.3   401  NNA401      0.0270
     21  C21      -15.9540    2.1480   40.9130 C.3   401  NNA401      0.0022
     22  C22      -16.4140    4.3880   41.9490 C.3   401  NNA401      0.0022
     23  C23      -14.2480    3.9550   40.6850 C.3   401  NNA401      0.0022
     24  C24      -13.9540    1.6420   42.9550 C.2   401  NNA401      0.2459
     25  O25      -12.9130    1.5220   42.3690 O.2   401  NNA401     -0.2730
     26  N26      -14.5360    0.4590   43.6770 N.am  401  NNA401     -0.2716
     27  C27      -15.6760    0.4230   44.3640 C.3   401  NNA401      0.0939
     28  C28      -13.8000   -0.9340   43.6700 C.3   401  NNA401      0.1535
     29  C29      -14.2720   -1.6110   44.7490 C.3   401  NNA401      0.0289
     30  C30      -15.5490   -0.8630   45.2250 C.3   401  NNA401      0.0220
     31  C31      -14.5280   -1.3960   46.2730 C.3   401  NNA401      0.0037
     32  C32      -15.0440   -2.5550   47.1650 C.3   401  NNA401      0.0001
     33  C33      -13.6840   -0.2740   46.9220 C.3   401  NNA401      0.0001
     34  C34      -14.0900   -1.5530   42.2930 C.2   401  NNA401      0.2595
     35  O35      -15.2150   -1.6790   41.9530 O.2   401  NNA401     -0.2716
     36  N36      -12.9830   -1.9210   41.3480 N.am  401  NNA401     -0.2027
     37  C37      -13.3370   -2.4500   40.0510 C.3   401  NNA401      0.1347
     38  C38      -12.8850   -1.5220   38.8800 C.3   401  NNA401      0.0248
     39  C39      -12.3610   -0.1130   39.3640 C.3   401  NNA401      0.0019
     40  C40      -12.3740    1.0730   38.3310 C.3   401  NNA401      0.0001
     41  C41      -11.0480    1.1380   37.5090 C.3   401  NNA401      0.0000
     42  O42      -13.1800   -4.5410   41.0280 O.3   401  NNA401     -0.2113
     43  C43      -12.6810   -3.7900   40.0130 C.3   401  NNA401      0.2487
     44  O44      -12.5400   -4.3570   37.7310 O.2   401  NNA401     -0.2705
     45  N45      -14.3690   -5.3790   38.7660 N.am  401  NNA401     -0.2050
     46  C46      -14.9470   -5.9440   37.5850 C.3   401  NNA401      0.0955
     47  C47      -15.7410   -4.8890   36.7810 C.3   401  NNA401      0.0234
     48  C48      -16.4870   -5.9710   37.5850 C.3   401  NNA401      0.0234
     49  C49      -13.1590   -4.4960   38.7650 C.2   401  NNA401      0.2736
@<TRIPOS>BOND
     1    47    48    1
     2    47    46    1
     3    41    40    1
     4    48    46    1
     5    46    45    1
     6    44    49    2
     7    40    39    1
     8    49    45   am
     9    49    43    1
    10    38    39    1
    11    38    37    1
    12    43    37    1
    13    43    42    1
    14    37    36    1
    15    23    20    1
    16    21    20    1
    17    36    34   am
    18    20    22    1
    19    20    19    1
    20    35    34    2
    21    34    28    1
    22    25    24    2
    23    24    19    1
    24    24    26   am
    25    19    18    1
    26    18     1   am
    27    28    26    1
    28    28    29    1
    29    26    27    1
    30    27    30    1
    31    29    30    1
    32    29    31    1
    33    12    11    2
    34    17    14    1
    35     1     3   am
    36     1     2    2
    37    15    14    1
    38    30    31    1
    39     3     4    1
    40    14    11    1
    41    14    16    1
    42    11    13    2
    43    11    10    1
    44    31    33    1
    45    31    32    1
    46     4     5    1
    47     4    10    1
    48     4     6    1
    49     7     5    1
    50     7     9    1
    51     6     8    1
    52     9     8    1
