WW4
  -OEChem-02242320043D

 35 38  0     1  0  0  0  0  0999 V2000
   -5.4170    0.9750   -0.1690 N   0  0  0  0  0  0  0  0  0  0  0  0
   -4.7830    2.1020    0.2870 C   0  0  0  0  0  0  0  0  0  0  0  0
   -3.2890    0.4170    0.2150 C   0  0  0  0  0  0  0  0  0  0  0  0
    2.4860   -1.2040   -0.1020 C   0  0  0  0  0  0  0  0  0  0  0  0
    1.3980   -0.3680    0.5750 C   0  0  1  0  0  0  0  0  0  0  0  0
    1.0810    0.8950   -0.2590 C   0  0  0  0  0  0  0  0  0  0  0  0
   -0.4480    1.0570   -0.1760 C   0  0  0  0  0  0  0  0  0  0  0  0
    0.0480   -1.1270    0.5820 C   0  0  0  0  0  0  0  0  0  0  0  0
   -2.1990   -0.4650    0.2560 C   0  0  0  0  0  0  0  0  0  0  0  0
   -3.5790   -2.1390   -0.5290 C   0  0  0  0  0  0  0  0  0  0  0  0
   -4.5350   -0.0690   -0.2220 C   0  0  0  0  0  0  0  0  0  0  0  0
   -3.4920    1.8290    0.5360 C   0  0  0  0  0  0  0  0  0  0  0  0
    3.8110   -0.4950    0.0140 C   0  0  0  0  0  0  0  0  0  0  0  0
    5.7620    0.0520    0.9330 C   0  0  0  0  0  0  0  0  0  0  0  0
    5.8760    0.8340   -0.1450 C   0  0  0  0  0  0  0  0  0  0  0  0
   -0.9550   -0.0360    0.6820 N   0  0  2  0  0  0  0  0  0  0  0  0
   -2.3930   -1.7250   -0.1210 N   0  0  0  0  0  0  0  0  0  0  0  0
   -4.6290   -1.3480   -0.5810 N   0  0  0  0  0  0  0  0  0  0  0  0
    4.6460   -0.6460    0.9860 N   0  0  0  0  0  0  0  0  0  0  0  0
    4.4270    0.6200   -1.1250 S   0  0  0  0  0  0  0  0  0  0  0  0
   -6.3540    0.9250   -0.4150 H   0  0  0  0  0  0  0  0  0  0  0  0
   -5.2520    3.0650    0.4260 H   0  0  0  0  0  0  0  0  0  0  0  0
    2.5510   -2.1780    0.3840 H   0  0  0  0  0  0  0  0  0  0  0  0
    2.2380   -1.3400   -1.1550 H   0  0  0  0  0  0  0  0  0  0  0  0
    1.6960   -0.1000    1.5890 H   0  0  0  0  0  0  0  0  0  0  0  0
    1.5770    1.7650    0.1690 H   0  0  0  0  0  0  0  0  0  0  0  0
    1.3910    0.7520   -1.2940 H   0  0  0  0  0  0  0  0  0  0  0  0
   -0.6960    2.0220    0.2670 H   0  0  0  0  0  0  0  0  0  0  0  0
   -0.8840    0.9790   -1.1720 H   0  0  0  0  0  0  0  0  0  0  0  0
   -0.0840   -1.6870   -0.3430 H   0  0  0  0  0  0  0  0  0  0  0  0
   -0.0170   -1.7890    1.4460 H   0  0  0  0  0  0  0  0  0  0  0  0
   -3.6930   -3.1710   -0.8280 H   0  0  0  0  0  0  0  0  0  0  0  0
   -2.7460    2.5200    0.9020 H   0  0  0  0  0  0  0  0  0  0  0  0
    6.5240   -0.0050    1.6960 H   0  0  0  0  0  0  0  0  0  0  0  0
    6.7090    1.4810   -0.3760 H   0  0  0  0  0  0  0  0  0  0  0  0
 15 20  1  0  0  0  0
 13 20  1  0  0  0  0
 14 15  2  0  0  0  0
  4 13  1  0  0  0  0
  4  5  1  0  0  0  0
 13 19  2  0  0  0  0
 14 19  1  0  0  0  0
  5  6  1  0  0  0  0
  6  7  1  0  0  0  0
  5  8  1  0  0  0  0
  7 16  1  0  0  0  0
  8 16  1  0  0  0  0
  9 16  1  0  0  0  0
  9 17  2  0  0  0  0
  3  9  1  0  0  0  0
  3 12  1  0  0  0  0
  2 12  2  0  0  0  0
 10 17  1  0  0  0  0
  3 11  2  0  0  0  0
  1  2  1  0  0  0  0
 10 18  2  0  0  0  0
  1 11  1  0  0  0  0
 11 18  1  0  0  0  0
  1 21  1  0  0  0  0
  2 22  1  0  0  0  0
  4 23  1  0  0  0  0
  4 24  1  0  0  0  0
  5 25  1  0  0  0  0
  6 26  1  0  0  0  0
  6 27  1  0  0  0  0
  7 28  1  0  0  0  0
  7 29  1  0  0  0  0
  8 30  1  0  0  0  0
  8 31  1  0  0  0  0
 10 32  1  0  0  0  0
 12 33  1  0  0  0  0
 14 34  1  0  0  0  0
 15 35  1  0  0  0  0
M  END
> <OPENEYE_ISO_SMILES>
c1c[nH]c2c1c(ncn2)[N@@]3CC[C@@H](C3)Cc4nccs4

> <OPENEYE_INCHI>
InChI=1S/C14H15N5S/c1-3-16-13-11(1)14(18-9-17-13)19-5-2-10(8-19)7-12-15-4-6-20-12/h1,3-4,6,9-10H,2,5,7-8H2,(H,16,17,18)/t10-/m1/s1

> <OPENEYE_INCHIKEY>
XUBYDFCDYPJZTA-SNVBAGLBSA-N

> <FORMULA>
C14H15N5S

$$$$
