@<TRIPOS>MOLECULE
/home/pku/3cl/gett_pdb/7S4B/7S4B_mol2/ligand/7S4B_87H.pdb
 22 24 0 0 0
SMALL
GASTEIGER

@<TRIPOS>ATOM
      1  C2       -19.8720   -1.4890   14.2460 C.3   401  87H401      0.1008
      2  C4       -18.9340   -1.7130   16.5720 C.ar  401  87H401      0.0258
      3  C5       -18.8670   -1.3030   17.8840 C.ar  401  87H401      0.1398
      4  C7       -19.6350   -0.2660   18.3820 C.ar  401  87H401      0.0296
      5  C8       -17.9170   -0.4270   11.1970 C.ar  401  87H401      0.0925
      6  C10      -17.7590    1.0610    9.2890 C.ar  401  87H401      0.0204
      7  C11      -16.3700    0.8620    9.3500 C.ar  401  87H401      0.0989
      8  C14      -19.9790    0.6050   10.1800 C.ar  401  87H401      0.0014
      9  C16      -19.6920    2.0700    8.2720 C.ar  401  87H401      0.0001
     10  C17      -18.3370    1.8960    8.3060 C.ar  401  87H401      0.0016
     11  C1       -19.7970   -1.0510   15.7000 C.ar  401  87H401     -0.0116
     12  C13      -16.5500   -0.5340   11.1460 C.ar  401  87H401      0.1154
     13  C15      -20.5140    1.4210    9.2140 C.ar  401  87H401      0.0000
     14  C19      -20.5010    0.3880   17.5120 C.ar  401  87H401      0.0020
     15  C20      -20.5870   -0.0050   16.1830 C.ar  401  87H401     -0.0037
     16  C21      -21.3030   -1.6360   13.7290 C.3   401  87H401      0.0144
     17  C3       -19.0600   -0.5410   13.3540 C.2   401  87H401      0.2492
     18  C9       -18.5800    0.4000   10.2460 C.ar  401  87H401      0.0184
     19  F22      -18.0240   -1.9470   18.7100 F     401  87H401     -0.2042
     20  N12      -15.7850    0.0990   10.2340 N.ar  401  87H401     -0.2410
     21  N6       -18.6650   -1.0960   12.1730 N.am  401  87H401     -0.1774
     22  O18      -18.7940    0.6210   13.6560 O.2   401  87H401     -0.2726
@<TRIPOS>BOND
     1     9    10   ar
     2     9    13   ar
     3    10     6   ar
     4    13     8   ar
     5     6     7   ar
     6     6    18   ar
     7     7    20   ar
     8     8    18   ar
     9    20    12   ar
    10    18     5   ar
    11    12     5   ar
    12     5    21    1
    13    21    17   am
    14    17    22    2
    15    17     1    1
    16    16     1    1
    17     1    11    1
    18    11    15   ar
    19    11     2   ar
    20    15    14   ar
    21     2     3   ar
    22    14     4   ar
    23     3     4   ar
    24     3    19    1
