4JO
  -OEChem-02242320003D

 16 16  0     0  0  0  0  0  0999 V2000
   -1.9990    0.2030    0.0010 Br  0  0  0  0  0  0  0  0  0  0  0  0
   -0.1080    0.2160    0.0010 C   0  0  0  0  0  0  0  0  0  0  0  0
    0.5970   -0.9720   -0.0010 C   0  0  0  0  0  0  0  0  0  0  0  0
   -0.1490   -2.2810   -0.0020 C   0  0  0  0  0  0  0  0  0  0  0  0
    0.5860    1.4190   -0.0030 C   0  0  0  0  0  0  0  0  0  0  0  0
    1.9690    1.3830   -0.0020 C   0  0  0  0  0  0  0  0  0  0  0  0
    2.6140    0.1510    0.0020 C   0  0  0  0  0  0  0  0  0  0  0  0
    1.9170   -0.9750   -0.0010 N   0  0  0  0  0  0  0  0  0  0  0  0
    4.0030    0.1010    0.0020 N   0  0  0  0  0  0  0  0  0  0  0  0
   -0.3290   -2.5950   -1.0310 H   0  0  0  0  0  0  0  0  0  0  0  0
    0.4430   -3.0380    0.5100 H   0  0  0  0  0  0  0  0  0  0  0  0
   -1.1030   -2.1560    0.5110 H   0  0  0  0  0  0  0  0  0  0  0  0
    0.0580    2.3610   -0.0070 H   0  0  0  0  0  0  0  0  0  0  0  0
    2.5400    2.3000   -0.0060 H   0  0  0  0  0  0  0  0  0  0  0  0
    4.5180    0.9230   -0.0000 H   0  0  0  0  0  0  0  0  0  0  0  0
    4.4580   -0.7560    0.0050 H   0  0  0  0  0  0  0  0  0  0  0  0
  3  4  1  0  0  0  0
  3  8  2  0  0  0  0
  7  8  1  0  0  0  0
  2  3  1  0  0  0  0
  7  9  1  0  0  0  0
  6  7  2  0  0  0  0
  1  2  1  0  0  0  0
  2  5  2  0  0  0  0
  5  6  1  0  0  0  0
  4 10  1  0  0  0  0
  4 11  1  0  0  0  0
  4 12  1  0  0  0  0
  5 13  1  0  0  0  0
  6 14  1  0  0  0  0
  9 15  1  0  0  0  0
  9 16  1  0  0  0  0
M  END
> <OPENEYE_ISO_SMILES>
Cc1c(ccc(n1)N)Br

> <OPENEYE_INCHI>
InChI=1S/C6H7BrN2/c1-4-5(7)2-3-6(8)9-4/h2-3H,1H3,(H2,8,9)

> <OPENEYE_INCHIKEY>
SEOZHXRTVJPQPZ-UHFFFAOYSA-N

> <FORMULA>
C6H7BrN2

$$$$
