WXX
  -OEChem-02242320043D

 53 55  0     1  0  0  0  0  0999 V2000
    3.2490   -0.0040   -0.1170 C   0  0  0  0  0  0  0  0  0  0  0  0
   -6.4860    0.3940   -0.1530 C   0  0  0  0  0  0  0  0  0  0  0  0
   -7.4690   -0.6680   -0.6500 C   0  0  0  0  0  0  0  0  0  0  0  0
   -7.2030   -1.9890    0.0730 C   0  0  0  0  0  0  0  0  0  0  0  0
   -5.7710   -2.4470   -0.2120 C   0  0  0  0  0  0  0  0  0  0  0  0
   -4.7880   -1.3860    0.2860 C   0  0  0  0  0  0  0  0  0  0  0  0
    4.8390   -0.2860   -1.7670 C   0  0  0  0  0  0  0  0  0  0  0  0
    4.4100    2.7910    0.1100 C   0  0  0  0  0  0  0  0  0  0  0  0
    3.0000    3.1150    0.6060 C   0  0  0  0  0  0  0  0  0  0  0  0
    2.0060    2.1210    0.0020 C   0  0  2  0  0  0  0  0  0  0  0  0
    0.5820    2.5190    0.3980 C   0  0  0  0  0  0  0  0  0  0  0  0
   -1.6790    1.6440    0.1560 C   0  0  0  0  0  0  0  0  0  0  0  0
   -2.6470    0.5990   -0.3350 C   0  0  0  0  0  0  0  0  0  0  0  0
   -4.0710    0.9970    0.0610 C   0  0  0  0  0  0  0  0  0  0  0  0
   -5.0540   -0.0640   -0.4370 C   0  0  0  0  0  0  0  0  0  0  0  0
    4.5280   -2.0460   -0.3190 C   0  0  0  0  0  0  0  0  0  0  0  0
    3.5400   -1.3000    0.3520 C   0  0  0  0  0  0  0  0  0  0  0  0
    3.0570   -2.1060    1.4060 C   0  0  0  0  0  0  0  0  0  0  0  0
   -0.3590    1.5030   -0.0790 N   0  0  0  0  0  0  0  0  0  0  0  0
    2.2940    0.7760    0.5050 N   0  0  0  0  0  0  0  0  0  0  0  0
    3.9200    0.4510   -1.1690 N   0  0  0  0  0  0  0  0  0  0  0  0
    5.1450   -1.5010   -1.3660 N   0  0  0  0  0  0  0  0  0  0  0  0
    3.6930   -3.2420    1.3800 N   0  0  0  0  0  0  0  0  0  0  0  0
    4.6140   -3.2450    0.3250 N   0  0  0  0  0  0  0  0  0  0  0  0
   -2.0870    2.6120    0.7620 O   0  0  0  0  0  0  0  0  0  0  0  0
   -6.6760    1.3350   -0.6680 H   0  0  0  0  0  0  0  0  0  0  0  0
   -6.6160    0.5340    0.9210 H   0  0  0  0  0  0  0  0  0  0  0  0
   -8.4890   -0.3420   -0.4470 H   0  0  0  0  0  0  0  0  0  0  0  0
   -7.3390   -0.8080   -1.7240 H   0  0  0  0  0  0  0  0  0  0  0  0
   -7.3330   -1.8490    1.1460 H   0  0  0  0  0  0  0  0  0  0  0  0
   -7.9030   -2.7450   -0.2820 H   0  0  0  0  0  0  0  0  0  0  0  0
   -5.5810   -3.3890    0.3030 H   0  0  0  0  0  0  0  0  0  0  0  0
   -5.6410   -2.5880   -1.2850 H   0  0  0  0  0  0  0  0  0  0  0  0
   -4.9180   -1.2450    1.3590 H   0  0  0  0  0  0  0  0  0  0  0  0
   -3.7680   -1.7120    0.0830 H   0  0  0  0  0  0  0  0  0  0  0  0
    5.3590    0.1250   -2.6190 H   0  0  0  0  0  0  0  0  0  0  0  0
    4.6790    1.7790    0.4130 H   0  0  0  0  0  0  0  0  0  0  0  0
    4.4390    2.8640   -0.9770 H   0  0  0  0  0  0  0  0  0  0  0  0
    5.1180    3.4990    0.5400 H   0  0  0  0  0  0  0  0  0  0  0  0
    2.9710    3.0420    1.6930 H   0  0  0  0  0  0  0  0  0  0  0  0
    2.7310    4.1270    0.3030 H   0  0  0  0  0  0  0  0  0  0  0  0
    2.0970    2.1300   -1.0840 H   0  0  0  0  0  0  0  0  0  0  0  0
    0.5150    2.5960    1.4830 H   0  0  0  0  0  0  0  0  0  0  0  0
    0.3360    3.4810   -0.0510 H   0  0  0  0  0  0  0  0  0  0  0  0
   -2.5800    0.5210   -1.4200 H   0  0  0  0  0  0  0  0  0  0  0  0
   -2.4010   -0.3640    0.1140 H   0  0  0  0  0  0  0  0  0  0  0  0
   -4.1380    1.0740    1.1460 H   0  0  0  0  0  0  0  0  0  0  0  0
   -4.3170    1.9590   -0.3880 H   0  0  0  0  0  0  0  0  0  0  0  0
   -4.9240   -0.2050   -1.5100 H   0  0  0  0  0  0  0  0  0  0  0  0
    2.2910   -1.8270    2.1140 H   0  0  0  0  0  0  0  0  0  0  0  0
   -0.0330    0.7290   -0.5640 H   0  0  0  0  0  0  0  0  0  0  0  0
    1.8140    0.4330    1.2750 H   0  0  0  0  0  0  0  0  0  0  0  0
    5.2090   -3.9740    0.0920 H   0  0  0  0  0  0  0  0  0  0  0  0
  4  5  1  0  0  0  0
  3  4  1  0  0  0  0
  5  6  1  0  0  0  0
  2  3  1  0  0  0  0
  6 15  1  0  0  0  0
  2 15  1  0  0  0  0
 14 15  1  0  0  0  0
  8  9  1  0  0  0  0
  9 10  1  0  0  0  0
 10 11  1  0  0  0  0
 11 19  1  0  0  0  0
 13 14  1  0  0  0  0
 12 13  1  0  0  0  0
 10 20  1  0  0  0  0
 12 19  1  0  0  0  0
 12 25  2  0  0  0  0
  1 20  1  0  0  0  0
  1 17  2  0  0  0  0
  1 21  1  0  0  0  0
 17 18  1  0  0  0  0
 18 23  2  0  0  0  0
 16 17  1  0  0  0  0
  7 21  2  0  0  0  0
 23 24  1  0  0  0  0
 16 24  1  0  0  0  0
 16 22  2  0  0  0  0
  7 22  1  0  0  0  0
  2 26  1  0  0  0  0
  2 27  1  0  0  0  0
  3 28  1  0  0  0  0
  3 29  1  0  0  0  0
  4 30  1  0  0  0  0
  4 31  1  0  0  0  0
  5 32  1  0  0  0  0
  5 33  1  0  0  0  0
  6 34  1  0  0  0  0
  6 35  1  0  0  0  0
  7 36  1  0  0  0  0
  8 37  1  0  0  0  0
  8 38  1  0  0  0  0
  8 39  1  0  0  0  0
  9 40  1  0  0  0  0
  9 41  1  0  0  0  0
 10 42  1  0  0  0  0
 11 43  1  0  0  0  0
 11 44  1  0  0  0  0
 13 45  1  0  0  0  0
 13 46  1  0  0  0  0
 14 47  1  0  0  0  0
 14 48  1  0  0  0  0
 15 49  1  0  0  0  0
 18 50  1  0  0  0  0
 19 51  1  0  0  0  0
 20 52  1  0  0  0  0
 24 53  1  0  0  0  0
M  END
> <OPENEYE_ISO_SMILES>
CC[C@H](CNC(=O)CCC1CCCCC1)Nc2c3cn[nH]c3ncn2

> <OPENEYE_INCHI>
InChI=1S/C18H28N6O/c1-2-14(23-17-15-11-22-24-18(15)21-12-20-17)10-19-16(25)9-8-13-6-4-3-5-7-13/h11-14H,2-10H2,1H3,(H,19,25)(H2,20,21,22,23,24)/t14-/m1/s1

> <OPENEYE_INCHIKEY>
HCXYCGJASBHJRP-CQSZACIVSA-N

> <FORMULA>
C18H28N6O

$$$$
