T8A
  -OEChem-02242320043D

 36 38  0     1  0  0  0  0  0999 V2000
    0.5650    3.2850    0.6980 C   0  0  0  0  0  0  0  0  0  0  0  0
    0.2220   -0.4520    0.4540 C   0  0  2  0  0  0  0  0  0  0  0  0
    2.5270   -1.1670    1.1170 C   0  0  0  0  0  0  0  0  0  0  0  0
    4.3580   -1.0650   -0.4230 C   0  0  0  0  0  0  0  0  0  0  0  0
   -0.6220   -1.3010   -0.4950 C   0  0  0  0  0  0  0  0  0  0  0  0
   -2.9890   -1.6760    0.0840 C   0  0  0  0  0  0  0  0  0  0  0  0
   -2.6310   -3.0360    0.6250 C   0  0  0  0  0  0  0  0  0  0  0  0
   -2.3230    0.5140   -0.8100 C   0  0  0  0  0  0  0  0  0  0  0  0
   -1.2840    1.4570   -0.2560 C   0  0  0  0  0  0  0  0  0  0  0  0
   -1.5360    2.8190   -0.3390 C   0  0  0  0  0  0  0  0  0  0  0  0
   -0.6180    3.7320    0.1410 C   0  0  0  0  0  0  0  0  0  0  0  0
    0.8200    1.9310    0.7740 C   0  0  0  0  0  0  0  0  0  0  0  0
   -0.1070    1.0100    0.3020 C   0  0  0  0  0  0  0  0  0  0  0  0
    1.6810   -0.6660    0.1450 C   0  0  0  0  0  0  0  0  0  0  0  0
    3.8660   -1.3640    0.8340 C   0  0  0  0  0  0  0  0  0  0  0  0
    3.5130   -0.5590   -1.3930 C   0  0  0  0  0  0  0  0  0  0  0  0
    2.1740   -0.3620   -1.1100 C   0  0  0  0  0  0  0  0  0  0  0  0
   -2.0210   -0.8580   -0.3750 N   0  0  0  0  0  0  0  0  0  0  0  0
   -4.1470   -1.3170    0.0630 O   0  0  0  0  0  0  0  0  0  0  0  0
    1.2910    3.9940    1.0680 H   0  0  0  0  0  0  0  0  0  0  0  0
    0.0240   -0.7590    1.4810 H   0  0  0  0  0  0  0  0  0  0  0  0
    2.1430   -1.4000    2.0990 H   0  0  0  0  0  0  0  0  0  0  0  0
    5.4030   -1.2180   -0.6440 H   0  0  0  0  0  0  0  0  0  0  0  0
   -0.2780   -1.1620   -1.5190 H   0  0  0  0  0  0  0  0  0  0  0  0
   -0.5430   -2.3520   -0.2180 H   0  0  0  0  0  0  0  0  0  0  0  0
   -2.3450   -2.9480    1.6730 H   0  0  0  0  0  0  0  0  0  0  0  0
   -3.4920   -3.6990    0.5380 H   0  0  0  0  0  0  0  0  0  0  0  0
   -1.7980   -3.4470    0.0540 H   0  0  0  0  0  0  0  0  0  0  0  0
   -3.3060    0.7970   -0.4350 H   0  0  0  0  0  0  0  0  0  0  0  0
   -2.3190    0.5700   -1.8990 H   0  0  0  0  0  0  0  0  0  0  0  0
   -2.4560    3.1680   -0.7840 H   0  0  0  0  0  0  0  0  0  0  0  0
   -0.8250    4.7900    0.0830 H   0  0  0  0  0  0  0  0  0  0  0  0
    1.7470    1.5840    1.2050 H   0  0  0  0  0  0  0  0  0  0  0  0
    4.5280   -1.7500    1.5950 H   0  0  0  0  0  0  0  0  0  0  0  0
    3.8990   -0.3170   -2.3720 H   0  0  0  0  0  0  0  0  0  0  0  0
    1.5130    0.0280   -1.8700 H   0  0  0  0  0  0  0  0  0  0  0  0
  6 19  2  0  0  0  0
  6  7  1  0  0  0  0
  6 18  1  0  0  0  0
  8 18  1  0  0  0  0
  8  9  1  0  0  0  0
  9 10  2  0  0  0  0
 10 11  1  0  0  0  0
  1 11  2  0  0  0  0
  1 12  1  0  0  0  0
 12 13  2  0  0  0  0
  2 13  1  0  0  0  0
  3 14  2  0  0  0  0
  3 15  1  0  0  0  0
  4 15  2  0  0  0  0
  4 16  1  0  0  0  0
 16 17  2  0  0  0  0
  2 14  1  0  0  0  0
  2  5  1  0  0  0  0
  5 18  1  0  0  0  0
  9 13  1  0  0  0  0
 14 17  1  0  0  0  0
  1 20  1  0  0  0  0
  2 21  1  0  0  0  0
  3 22  1  0  0  0  0
  4 23  1  0  0  0  0
  5 24  1  0  0  0  0
  5 25  1  0  0  0  0
  7 26  1  0  0  0  0
  7 27  1  0  0  0  0
  7 28  1  0  0  0  0
  8 29  1  0  0  0  0
  8 30  1  0  0  0  0
 10 31  1  0  0  0  0
 11 32  1  0  0  0  0
 12 33  1  0  0  0  0
 15 34  1  0  0  0  0
 16 35  1  0  0  0  0
 17 36  1  0  0  0  0
M  END
> <OPENEYE_ISO_SMILES>
CC(=O)N1Cc2ccccc2[C@@H](C1)c3ccccc3

> <OPENEYE_INCHI>
InChI=1S/C17H17NO/c1-13(19)18-11-15-9-5-6-10-16(15)17(12-18)14-7-3-2-4-8-14/h2-10,17H,11-12H2,1H3/t17-/m0/s1

> <OPENEYE_INCHIKEY>
SORYMMAUHZPBJM-KRWDZBQOSA-N

> <FORMULA>
C17H17NO

$$$$
