@<TRIPOS>MOLECULE
/home/pku/3cl/gett_pdb/5RUQ/5RUQ_mol2/ligand/5RUQ_W6D.pdb
 20 21 0 0 0
SMALL
GASTEIGER

@<TRIPOS>ATOM
      1  C10      -19.9600  -18.5360    8.4560 C.ar  201  W6D201      0.0028
      2  C02      -23.8770  -16.3500    8.8430 C.2   201  W6D201      0.2422
      3  C04      -23.2990  -17.5790    9.5710 C.ar  201  W6D201      0.0456
      4  C05      -24.0490  -18.2160   10.5650 C.ar  201  W6D201     -0.0489
      5  C06      -23.5370  -19.3340   11.2310 C.ar  201  W6D201     -0.0591
      6  C07      -22.2790  -19.8040   10.8990 C.ar  201  W6D201     -0.0378
      7  C08      -21.5150  -19.1640    9.8950 C.ar  201  W6D201      0.0472
      8  C11      -21.0250  -17.6640    8.3250 C.ar  201  W6D201     -0.0359
      9  C12      -22.0160  -18.0660    9.2390 C.ar  201  W6D201      0.0117
     10  N01      -24.6970  -15.4430    9.5870 N.am  201  W6D201     -0.3253
     11  N09      -20.2690  -19.4170    9.3910 N.ar  201  W6D201     -0.3606
     12  O03      -23.6710  -16.1300    7.7040 O.2   201  W6D201     -0.2704
     13 H101      -19.1690  -18.5110    7.9680 H     201  W6D201      0.0807
     14 H051      -24.8960  -17.8980   10.7790 H     201  W6D201      0.0625
     15 H061      -24.0390  -19.7600   11.8880 H     201  W6D201      0.0618
     16 H071      -21.9330  -20.5460   11.3400 H     201  W6D201      0.0638
     17 H111      -21.0800  -16.9490    7.7330 H     201  W6D201      0.0639
     18 H012      -25.0310  -14.7500    9.2020 H     201  W6D201      0.1453
     19 H011      -24.8560  -15.5910   10.4190 H     201  W6D201      0.1453
     20 H091      -19.7570  -20.0580    9.6490 H     201  W6D201      0.1653
@<TRIPOS>BOND
     1    12     2    2
     2    17     8    1
     3    13     1    1
     4     8     1   ar
     5     8     9   ar
     6     1    11   ar
     7     2     3    1
     8     2    10   am
     9    18    10    1
    10     9     3   ar
    11     9     7   ar
    12    11    20    1
    13    11     7   ar
    14     3     4   ar
    15    10    19    1
    16     7     6   ar
    17     4    14    1
    18     4     5   ar
    19     6     5   ar
    20     6    16    1
    21     5    15    1
