X4V
  -OEChem-02242320043D

 21 21  0     0  0  0  0  0  0999 V2000
    2.9510    0.7650   -0.0030 C   0  0  0  0  0  0  0  0  0  0  0  0
    2.2690   -1.6790    0.0030 C   0  0  0  0  0  0  0  0  0  0  0  0
    0.5640    0.1140    0.0020 C   0  0  0  0  0  0  0  0  0  0  0  0
    0.1970    1.4620   -0.0000 C   0  0  0  0  0  0  0  0  0  0  0  0
   -1.1400    1.7950    0.0000 C   0  0  0  0  0  0  0  0  0  0  0  0
   -1.7690   -0.4300   -0.0000 C   0  0  0  0  0  0  0  0  0  0  0  0
   -0.4440   -0.8450   -0.0010 C   0  0  0  0  0  0  0  0  0  0  0  0
    1.9050   -0.2600    0.0000 N   0  0  0  0  0  0  0  0  0  0  0  0
   -2.0720    0.8600    0.0040 N   0  0  0  0  0  0  0  0  0  0  0  0
   -2.7870   -1.3770   -0.0030 N   0  0  0  0  0  0  0  0  0  0  0  0
    3.2120    1.0210    1.0240 H   0  0  0  0  0  0  0  0  0  0  0  0
    3.8330    0.3820   -0.5170 H   0  0  0  0  0  0  0  0  0  0  0  0
    2.5870    1.6540   -0.5180 H   0  0  0  0  0  0  0  0  0  0  0  0
    2.3580   -2.0330   -1.0250 H   0  0  0  0  0  0  0  0  0  0  0  0
    3.2220   -1.8090    0.5150 H   0  0  0  0  0  0  0  0  0  0  0  0
    1.4980   -2.2510    0.5190 H   0  0  0  0  0  0  0  0  0  0  0  0
    0.9530    2.2330   -0.0020 H   0  0  0  0  0  0  0  0  0  0  0  0
   -1.4290    2.8360   -0.0010 H   0  0  0  0  0  0  0  0  0  0  0  0
   -0.2000   -1.8970   -0.0040 H   0  0  0  0  0  0  0  0  0  0  0  0
   -2.5700   -2.3220   -0.0050 H   0  0  0  0  0  0  0  0  0  0  0  0
   -3.7140   -1.0920   -0.0020 H   0  0  0  0  0  0  0  0  0  0  0  0
  5  9  2  0  0  0  0
  6  9  1  0  0  0  0
  6 10  1  0  0  0  0
  4  5  1  0  0  0  0
  6  7  2  0  0  0  0
  3  4  2  0  0  0  0
  3  7  1  0  0  0  0
  3  8  1  0  0  0  0
  1  8  1  0  0  0  0
  2  8  1  0  0  0  0
  1 11  1  0  0  0  0
  1 12  1  0  0  0  0
  1 13  1  0  0  0  0
  2 14  1  0  0  0  0
  2 15  1  0  0  0  0
  2 16  1  0  0  0  0
  4 17  1  0  0  0  0
  5 18  1  0  0  0  0
  7 19  1  0  0  0  0
 10 20  1  0  0  0  0
 10 21  1  0  0  0  0
M  END
> <OPENEYE_ISO_SMILES>
CN(C)c1ccnc(c1)N

> <OPENEYE_INCHI>
InChI=1S/C7H11N3/c1-10(2)6-3-4-9-7(8)5-6/h3-5H,1-2H3,(H2,8,9)

> <OPENEYE_INCHIKEY>
QEDNABCLVCJRLV-UHFFFAOYSA-N

> <FORMULA>
C7H11N3

$$$$
