7VB
  -OEChem-02242320013D

 74 75  0     1  0  0  0  0  0999 V2000
    9.6720    1.1100   -2.0230 C   0  0  0  0  0  0  0  0  0  0  0  0
    1.8260   -0.2270    1.2150 C   0  0  2  0  0  0  0  0  0  0  0  0
    0.6370   -0.4220    0.3100 C   0  0  0  0  0  0  0  0  0  0  0  0
   -1.7160   -0.9450   -0.0480 C   0  0  2  0  0  0  0  0  0  0  0  0
   -2.9840   -0.7000    0.7290 C   0  0  0  0  0  0  0  0  0  0  0  0
   -5.4130   -0.5790    0.8750 C   0  0  1  0  0  0  0  0  0  0  0  0
   -6.5170   -0.1230   -0.0820 C   0  0  0  0  0  0  0  0  0  0  0  0
    9.2090    1.9890   -1.0620 C   0  0  0  0  0  0  0  0  0  0  0  0
   -6.1440    1.2340   -0.6820 C   0  0  2  0  0  0  0  0  0  0  0  0
   -6.1010    2.3190    0.4180 C   0  0  0  0  0  0  0  0  0  0  0  0
   -6.6590    3.5490   -0.3310 C   0  0  0  0  0  0  0  0  0  0  0  0
   -7.2230    1.7080   -1.6300 C   0  0  0  0  0  0  0  0  0  0  0  0
    8.2200    1.5920   -0.1820 C   0  0  0  0  0  0  0  0  0  0  0  0
    1.5310    0.8970    2.2100 C   0  0  0  0  0  0  0  0  0  0  0  0
    2.7380    1.0940    3.1280 C   0  0  0  0  0  0  0  0  0  0  0  0
    1.2530    2.1930    1.4470 C   0  0  0  0  0  0  0  0  0  0  0  0
   -1.7170   -2.3770   -0.5870 C   0  0  0  0  0  0  0  0  0  0  0  0
   -0.5100   -2.5840   -1.4650 C   0  0  0  0  0  0  0  0  0  0  0  0
   -0.5590   -2.1900   -2.9190 C   0  0  0  0  0  0  0  0  0  0  0  0
    0.5820   -3.1060   -0.9650 C   0  0  0  0  0  0  0  0  0  0  0  0
    7.6940    0.3160   -0.2630 C   0  0  0  0  0  0  0  0  0  0  0  0
    8.1570   -0.5630   -1.2240 C   0  0  0  0  0  0  0  0  0  0  0  0
    9.1470   -0.1660   -2.1040 C   0  0  0  0  0  0  0  0  0  0  0  0
    6.6170   -0.1170    0.6980 C   0  0  0  0  0  0  0  0  0  0  0  0
   -5.8430   -1.8720    1.5710 C   0  0  0  0  0  0  0  0  0  0  0  0
    4.2370   -0.1330    0.8740 C   0  0  0  0  0  0  0  0  0  0  0  0
    2.9980    0.1270    0.4110 N   0  0  0  0  0  0  0  0  0  0  0  0
   -0.5600   -0.7560    0.8320 N   0  0  0  0  0  0  0  0  0  0  0  0
   -4.1810   -0.8170    0.1200 N   0  0  0  0  0  0  0  0  0  0  0  0
   -7.4950    3.0060   -1.4080 N   0  0  0  0  0  0  0  0  0  0  0  0
   -7.7640    1.0190   -2.4680 O   0  0  0  0  0  0  0  0  0  0  0  0
    4.3810   -0.6620    1.9590 O   0  0  0  0  0  0  0  0  0  0  0  0
    0.7570   -0.2790   -0.8890 O   0  0  0  0  0  0  0  0  0  0  0  0
   -2.9280   -0.3970    1.9020 O   0  0  0  0  0  0  0  0  0  0  0  0
    5.3140    0.1920    0.1360 O   0  0  0  0  0  0  0  0  0  0  0  0
   -6.1850   -2.8510    0.5880 O   0  0  0  0  0  0  0  0  0  0  0  0
   10.4420    1.4210   -2.7140 H   0  0  0  0  0  0  0  0  0  0  0  0
    2.0240   -1.1510    1.7580 H   0  0  0  0  0  0  0  0  0  0  0  0
   -1.6580   -0.2430   -0.8800 H   0  0  0  0  0  0  0  0  0  0  0  0
   -5.2380    0.1950    1.6220 H   0  0  0  0  0  0  0  0  0  0  0  0
   -6.6310   -0.8550   -0.8810 H   0  0  0  0  0  0  0  0  0  0  0  0
   -7.4560   -0.0330    0.4640 H   0  0  0  0  0  0  0  0  0  0  0  0
    9.6190    2.9860   -1.0000 H   0  0  0  0  0  0  0  0  0  0  0  0
   -5.1840    1.1720   -1.1940 H   0  0  0  0  0  0  0  0  0  0  0  0
   -6.7420    2.0500    1.2570 H   0  0  0  0  0  0  0  0  0  0  0  0
   -5.0780    2.4960    0.7520 H   0  0  0  0  0  0  0  0  0  0  0  0
   -7.2600    4.1600    0.3420 H   0  0  0  0  0  0  0  0  0  0  0  0
   -5.8430    4.1400   -0.7470 H   0  0  0  0  0  0  0  0  0  0  0  0
    7.8580    2.2780    0.5690 H   0  0  0  0  0  0  0  0  0  0  0  0
    0.6580    0.6330    2.8080 H   0  0  0  0  0  0  0  0  0  0  0  0
    2.5280    1.8950    3.8370 H   0  0  0  0  0  0  0  0  0  0  0  0
    2.9360    0.1710    3.6720 H   0  0  0  0  0  0  0  0  0  0  0  0
    3.6100    1.3580    2.5310 H   0  0  0  0  0  0  0  0  0  0  0  0
    0.3930    2.0530    0.7920 H   0  0  0  0  0  0  0  0  0  0  0  0
    1.0430    2.9940    2.1550 H   0  0  0  0  0  0  0  0  0  0  0  0
    2.1250    2.4570    0.8490 H   0  0  0  0  0  0  0  0  0  0  0  0
   -1.6860   -3.0790    0.2460 H   0  0  0  0  0  0  0  0  0  0  0  0
   -2.6230   -2.5450   -1.1700 H   0  0  0  0  0  0  0  0  0  0  0  0
   -0.2330   -1.1550   -3.0260 H   0  0  0  0  0  0  0  0  0  0  0  0
    0.1000   -2.8400   -3.4940 H   0  0  0  0  0  0  0  0  0  0  0  0
   -1.5800   -2.2890   -3.2880 H   0  0  0  0  0  0  0  0  0  0  0  0
    1.4470   -3.2540   -1.5940 H   0  0  0  0  0  0  0  0  0  0  0  0
    0.6170   -3.3880    0.0770 H   0  0  0  0  0  0  0  0  0  0  0  0
    7.7470   -1.5600   -1.2870 H   0  0  0  0  0  0  0  0  0  0  0  0
    9.5060   -0.8520   -2.8570 H   0  0  0  0  0  0  0  0  0  0  0  0
    6.6930   -1.1910    0.8690 H   0  0  0  0  0  0  0  0  0  0  0  0
    6.7390    0.4110    1.6440 H   0  0  0  0  0  0  0  0  0  0  0  0
   -5.0230   -2.2440    2.1840 H   0  0  0  0  0  0  0  0  0  0  0  0
   -6.7090   -1.6740    2.2030 H   0  0  0  0  0  0  0  0  0  0  0  0
    2.8830    0.5490   -0.4550 H   0  0  0  0  0  0  0  0  0  0  0  0
   -0.6560   -0.8700    1.7900 H   0  0  0  0  0  0  0  0  0  0  0  0
   -4.2260   -1.0590   -0.8180 H   0  0  0  0  0  0  0  0  0  0  0  0
   -8.1590    3.5170   -1.8960 H   0  0  0  0  0  0  0  0  0  0  0  0
   -6.4680   -3.6980    0.9580 H   0  0  0  0  0  0  0  0  0  0  0  0
 12 31  2  0  0  0  0
 12 30  1  0  0  0  0
  9 12  1  0  0  0  0
  7  9  1  0  0  0  0
  6  7  1  0  0  0  0
 11 30  1  0  0  0  0
  9 10  1  0  0  0  0
 25 36  1  0  0  0  0
  6 25  1  0  0  0  0
  6 29  1  0  0  0  0
  5 29  1  0  0  0  0
  3 33  2  0  0  0  0
 24 35  1  0  0  0  0
 26 35  1  0  0  0  0
 10 11  1  0  0  0  0
 18 20  2  0  0  0  0
 18 19  1  0  0  0  0
 21 24  1  0  0  0  0
  4  5  1  0  0  0  0
  4 17  1  0  0  0  0
  4 28  1  0  0  0  0
 17 18  1  0  0  0  0
  5 34  2  0  0  0  0
 26 27  1  0  0  0  0
  2 27  1  0  0  0  0
  3 28  1  0  0  0  0
  2  3  1  0  0  0  0
 26 32  2  0  0  0  0
 13 21  2  0  0  0  0
  8 13  1  0  0  0  0
 21 22  1  0  0  0  0
  2 14  1  0  0  0  0
 14 16  1  0  0  0  0
 14 15  1  0  0  0  0
  1  8  2  0  0  0  0
 22 23  2  0  0  0  0
  1 23  1  0  0  0  0
  1 37  1  0  0  0  0
  2 38  1  0  0  0  0
  4 39  1  0  0  0  0
  6 40  1  0  0  0  0
  7 41  1  0  0  0  0
  7 42  1  0  0  0  0
  8 43  1  0  0  0  0
  9 44  1  0  0  0  0
 10 45  1  0  0  0  0
 10 46  1  0  0  0  0
 11 47  1  0  0  0  0
 11 48  1  0  0  0  0
 13 49  1  0  0  0  0
 14 50  1  0  0  0  0
 15 51  1  0  0  0  0
 15 52  1  0  0  0  0
 15 53  1  0  0  0  0
 16 54  1  0  0  0  0
 16 55  1  0  0  0  0
 16 56  1  0  0  0  0
 17 57  1  0  0  0  0
 17 58  1  0  0  0  0
 19 59  1  0  0  0  0
 19 60  1  0  0  0  0
 19 61  1  0  0  0  0
 20 62  1  0  0  0  0
 20 63  1  0  0  0  0
 22 64  1  0  0  0  0
 23 65  1  0  0  0  0
 24 66  1  0  0  0  0
 24 67  1  0  0  0  0
 25 68  1  0  0  0  0
 25 69  1  0  0  0  0
 27 70  1  0  0  0  0
 28 71  1  0  0  0  0
 29 72  1  0  0  0  0
 30 73  1  0  0  0  0
 36 74  1  0  0  0  0
M  END
> <OPENEYE_ISO_SMILES>
CC(C)[C@@H](C(=O)N[C@@H](CC(=C)C)C(=O)N[C@@H](C[C@@H]1CCNC1=O)CO)NC(=O)OCc2ccccc2

> <OPENEYE_INCHI>
InChI=1S/C26H38N4O6/c1-16(2)12-21(24(33)28-20(14-31)13-19-10-11-27-23(19)32)29-25(34)22(17(3)4)30-26(35)36-15-18-8-6-5-7-9-18/h5-9,17,19-22,31H,1,10-15H2,2-4H3,(H,27,32)(H,28,33)(H,29,34)(H,30,35)/t19-,20-,21-,22-/m0/s1

> <OPENEYE_INCHIKEY>
BYTYQUJNXNJHDG-CMOCDZPBSA-N

> <FORMULA>
C26H38N4O6

$$$$
