BXW
  -OEChem-02242320023D

 21 22  0     0  0  0  0  0  0999 V2000
    4.3610    0.7710    0.1380 O   0  0  0  0  0  0  0  0  0  0  0  0
    3.4240   -0.1940    0.0640 C   0  0  0  0  0  0  0  0  0  0  0  0
    1.9960    0.1680   -0.0020 C   0  0  0  0  0  0  0  0  0  0  0  0
    3.7550   -1.3630    0.0530 O   0  0  0  0  0  0  0  0  0  0  0  0
    1.6100    1.5110    0.0060 C   0  0  0  0  0  0  0  0  0  0  0  0
    0.2780    1.8510   -0.0570 C   0  0  0  0  0  0  0  0  0  0  0  0
    1.0190   -0.8310   -0.0780 C   0  0  0  0  0  0  0  0  0  0  0  0
   -0.3150   -0.4820   -0.1410 C   0  0  0  0  0  0  0  0  0  0  0  0
   -0.7010    0.8620   -0.1310 C   0  0  0  0  0  0  0  0  0  0  0  0
   -2.0360    1.2340   -0.2020 N   0  0  0  0  0  0  0  0  0  0  0  0
   -3.0780    0.4760    0.1320 C   0  0  0  0  0  0  0  0  0  0  0  0
   -2.9490   -0.9380    0.6280 C   0  0  0  0  0  0  0  0  0  0  0  0
   -1.5540   -1.7360   -0.2330 S   0  0  0  0  0  0  0  0  0  0  0  0
   -4.1890    0.9500    0.0310 O   0  0  0  0  0  0  0  0  0  0  0  0
    5.2840    0.4850    0.1790 H   0  0  0  0  0  0  0  0  0  0  0  0
    2.3610    2.2860    0.0620 H   0  0  0  0  0  0  0  0  0  0  0  0
   -0.0110    2.8920   -0.0500 H   0  0  0  0  0  0  0  0  0  0  0  0
    1.3090   -1.8710   -0.0880 H   0  0  0  0  0  0  0  0  0  0  0  0
   -2.2280    2.1280   -0.5250 H   0  0  0  0  0  0  0  0  0  0  0  0
   -2.7670   -0.9330    1.7020 H   0  0  0  0  0  0  0  0  0  0  0  0
   -3.8680   -1.4840    0.4160 H   0  0  0  0  0  0  0  0  0  0  0  0
  1  2  1  0  0  0  0
  2  4  2  0  0  0  0
  2  3  1  0  0  0  0
  3  5  2  0  0  0  0
  3  7  1  0  0  0  0
  1 15  1  0  0  0  0
  5  6  1  0  0  0  0
  5 16  1  0  0  0  0
  6  9  2  0  0  0  0
  6 17  1  0  0  0  0
  7  8  2  0  0  0  0
  7 18  1  0  0  0  0
  8  9  1  0  0  0  0
  8 13  1  0  0  0  0
  9 10  1  0  0  0  0
 10 11  1  0  0  0  0
 10 19  1  0  0  0  0
 11 12  1  0  0  0  0
 11 14  2  0  0  0  0
 12 13  1  0  0  0  0
 12 20  1  0  0  0  0
 12 21  1  0  0  0  0
M  END
> <OPENEYE_ISO_SMILES>
c1cc2c(cc1C(=O)O)SCC(=O)N2

> <OPENEYE_INCHI>
InChI=1S/C9H7NO3S/c11-8-4-14-7-3-5(9(12)13)1-2-6(7)10-8/h1-3H,4H2,(H,10,11)(H,12,13)

> <OPENEYE_INCHIKEY>
PMIQHWMFUZMWOX-UHFFFAOYSA-N

> <FORMULA>
C9H7NO3S

$$$$
