EO6
  -OEChem-02242320023D

 74 76  0     1  0  0  0  0  0999 V2000
  -10.1890    0.9840   -0.0070 C   0  0  0  0  0  0  0  0  0  0  0  0
   -8.3520    0.3560   -1.5060 C   0  0  0  0  0  0  0  0  0  0  0  0
   -7.3600   -0.7630   -1.1720 C   0  0  0  0  0  0  0  0  0  0  0  0
   -6.3040   -0.2250   -0.2080 C   0  0  0  0  0  0  0  0  0  0  0  0
   -5.2910    0.7160   -0.8740 C   0  0  0  0  0  0  0  0  0  0  0  0
    0.5820   -0.4140    0.1940 C   0  0  1  0  0  0  0  0  0  0  0  0
    0.8030   -1.8010    0.8010 C   0  0  0  0  0  0  0  0  0  0  0  0
   -0.3180   -2.1070    1.7960 C   0  0  0  0  0  0  0  0  0  0  0  0
   -0.1670   -3.5400    2.3100 C   0  0  0  0  0  0  0  0  0  0  0  0
    1.7490   -0.0620   -0.6920 C   0  0  0  0  0  0  0  0  0  0  0  0
    4.1260    0.3460   -1.0370 C   0  0  1  0  0  0  0  0  0  0  0  0
    5.1780    1.0990   -0.2200 C   0  0  0  0  0  0  0  0  0  0  0  0
    4.5910    2.4250    0.2690 C   0  0  1  0  0  0  0  0  0  0  0  0
    5.6120    3.1880    1.0840 C   0  0  0  0  0  0  0  0  0  0  0  0
    6.3170    2.7040    1.9440 O   0  0  0  0  0  0  0  0  0  0  0  0
    5.1790   -2.0490   -0.2400 S   0  0  0  0  0  0  0  0  0  0  0  0
   -1.8380   -0.2050    0.0000 C   0  0  0  0  0  0  0  0  0  0  0  0
   -2.9700   -0.2090   -0.7290 O   0  0  0  0  0  0  0  0  0  0  0  0
    4.6460    4.7420   -0.3470 C   0  0  0  0  0  0  0  0  0  0  0  0
   -4.2130    0.0290   -0.0180 C   0  0  0  0  0  0  0  0  0  0  0  0
   -0.2350   -1.1330    2.9730 C   0  0  0  0  0  0  0  0  0  0  0  0
    4.2870    3.3560   -0.9270 C   0  0  0  0  0  0  0  0  0  0  0  0
    4.7410   -0.9350   -1.6030 C   0  0  1  0  0  0  0  0  0  0  0  0
   -5.1410   -1.1970    0.0290 C   0  0  0  0  0  0  0  0  0  0  0  0
   -6.9010    0.3360    1.0810 C   0  0  0  0  0  0  0  0  0  0  0  0
   -7.8970    1.4480    0.7320 C   0  0  0  0  0  0  0  0  0  0  0  0
  -11.3050    1.0290    0.1990 N   0  0  0  0  0  0  0  0  0  0  0  0
   -8.8570    0.9310   -0.2520 N   0  0  0  0  0  0  0  0  0  0  0  0
   -0.6500   -0.4190   -0.5990 N   0  0  0  0  0  0  0  0  0  0  0  0
    2.9920    0.0040   -0.1750 N   0  0  0  0  0  0  0  0  0  0  0  0
    5.6260    4.4810    0.7150 N   0  0  0  0  0  0  0  0  0  0  0  0
    3.7970   -1.5790   -2.4600 O   0  0  0  0  0  0  0  0  0  0  0  0
    1.5690    0.1630   -1.8700 O   0  0  0  0  0  0  0  0  0  0  0  0
   -1.8880   -0.0070    1.1980 O   0  0  0  0  0  0  0  0  0  0  0  0
    5.7740   -3.2710   -0.9250 O   0  0  0  0  0  0  0  0  0  0  0  0
   -7.8490    1.1300   -2.0860 H   0  0  0  0  0  0  0  0  0  0  0  0
   -9.1820   -0.0510   -2.0840 H   0  0  0  0  0  0  0  0  0  0  0  0
   -7.8910   -1.5930   -0.7040 H   0  0  0  0  0  0  0  0  0  0  0  0
   -6.8780   -1.1080   -2.0870 H   0  0  0  0  0  0  0  0  0  0  0  0
   -5.1730    0.5450   -1.9440 H   0  0  0  0  0  0  0  0  0  0  0  0
   -5.4430    1.7660   -0.6270 H   0  0  0  0  0  0  0  0  0  0  0  0
    0.4970    0.3230    0.9930 H   0  0  0  0  0  0  0  0  0  0  0  0
    0.8000   -2.5490    0.0090 H   0  0  0  0  0  0  0  0  0  0  0  0
    1.7630   -1.8230    1.3170 H   0  0  0  0  0  0  0  0  0  0  0  0
   -1.2830   -1.9980    1.3010 H   0  0  0  0  0  0  0  0  0  0  0  0
    0.7980   -3.6490    2.8050 H   0  0  0  0  0  0  0  0  0  0  0  0
   -0.9660   -3.7580    3.0190 H   0  0  0  0  0  0  0  0  0  0  0  0
   -0.2260   -4.2350    1.4720 H   0  0  0  0  0  0  0  0  0  0  0  0
    3.7820    0.9780   -1.8560 H   0  0  0  0  0  0  0  0  0  0  0  0
    5.4730    0.4950    0.6380 H   0  0  0  0  0  0  0  0  0  0  0  0
    6.0500    1.2960   -0.8430 H   0  0  0  0  0  0  0  0  0  0  0  0
    3.6880    2.2490    0.8540 H   0  0  0  0  0  0  0  0  0  0  0  0
    5.0860    5.3730   -1.1190 H   0  0  0  0  0  0  0  0  0  0  0  0
   -4.0610    0.5000    0.9540 H   0  0  0  0  0  0  0  0  0  0  0  0
    0.7290   -1.2410    3.4680 H   0  0  0  0  0  0  0  0  0  0  0  0
   -0.3430   -0.1110    2.6070 H   0  0  0  0  0  0  0  0  0  0  0  0
   -1.0340   -1.3500    3.6820 H   0  0  0  0  0  0  0  0  0  0  0  0
    4.9220    3.1150   -1.7800 H   0  0  0  0  0  0  0  0  0  0  0  0
    5.6380   -0.6870   -2.1720 H   0  0  0  0  0  0  0  0  0  0  0  0
   -5.1720   -1.6860    1.0030 H   0  0  0  0  0  0  0  0  0  0  0  0
   -4.9820   -1.8970   -0.7920 H   0  0  0  0  0  0  0  0  0  0  0  0
   -7.4170   -0.4590    1.6190 H   0  0  0  0  0  0  0  0  0  0  0  0
   -6.1050    0.7410    1.7050 H   0  0  0  0  0  0  0  0  0  0  0  0
   -8.4270    1.7600    1.6310 H   0  0  0  0  0  0  0  0  0  0  0  0
   -7.3610    2.2980    0.3080 H   0  0  0  0  0  0  0  0  0  0  0  0
   -0.6100   -0.5770   -1.5550 H   0  0  0  0  0  0  0  0  0  0  0  0
    3.1350   -0.1760    0.7670 H   0  0  0  0  0  0  0  0  0  0  0  0
    6.2080    5.1540    1.1000 H   0  0  0  0  0  0  0  0  0  0  0  0
    2.9730   -1.8280   -2.0200 H   0  0  0  0  0  0  0  0  0  0  0  0
    6.0580   -3.9650   -0.3150 H   0  0  0  0  0  0  0  0  0  0  0  0
    6.2560   -1.5130    0.5160 O   0  0  0  0  0  0  0  0  0  0  0  0
    4.0080   -2.5400    0.3980 O   0  0  0  0  0  0  0  0  0  0  0  0
    3.7580    5.2190    0.0680 H   0  0  0  0  0  0  0  0  0  0  0  0
    3.2340    3.3090   -1.2010 H   0  0  0  0  0  0  0  0  0  0  0  0
  1 27  3  0  0  0  0
 25 26  1  0  0  0  0
 26 28  1  0  0  0  0
  1 28  1  0  0  0  0
  4 25  1  0  0  0  0
  2 28  1  0  0  0  0
 14 15  2  0  0  0  0
  4 24  1  0  0  0  0
  3  4  1  0  0  0  0
  4  5  1  0  0  0  0
 20 24  1  0  0  0  0
  2  3  1  0  0  0  0
 14 31  1  0  0  0  0
 13 14  1  0  0  0  0
  5 20  1  0  0  0  0
 18 20  1  0  0  0  0
 19 31  1  0  0  0  0
 17 34  2  0  0  0  0
 12 13  1  0  0  0  0
 13 22  1  0  0  0  0
 17 18  1  0  0  0  0
 17 29  1  0  0  0  0
  8  9  1  0  0  0  0
 19 22  1  0  0  0  0
 11 12  1  0  0  0  0
  6 29  1  0  0  0  0
  6 10  1  0  0  0  0
  6  7  1  0  0  0  0
 16 23  1  0  0  0  0
 11 30  1  0  0  0  0
 10 30  1  0  0  0  0
  7  8  1  0  0  0  0
  8 21  1  0  0  0  0
 11 23  1  0  0  0  0
 10 33  2  0  0  0  0
 23 32  1  0  0  0  0
 16 35  1  0  0  0  0
  2 36  1  0  0  0  0
  2 37  1  0  0  0  0
  3 38  1  0  0  0  0
  3 39  1  0  0  0  0
  5 40  1  0  0  0  0
  5 41  1  0  0  0  0
  6 42  1  0  0  0  0
  7 43  1  0  0  0  0
  7 44  1  0  0  0  0
  8 45  1  0  0  0  0
  9 46  1  0  0  0  0
  9 47  1  0  0  0  0
  9 48  1  0  0  0  0
 11 49  1  0  0  0  0
 12 50  1  0  0  0  0
 12 51  1  0  0  0  0
 13 52  1  0  0  0  0
 19 53  1  0  0  0  0
 20 54  1  0  0  0  0
 21 55  1  0  0  0  0
 21 56  1  0  0  0  0
 21 57  1  0  0  0  0
 22 58  1  0  0  0  0
 23 59  1  0  0  0  0
 24 60  1  0  0  0  0
 24 61  1  0  0  0  0
 25 62  1  0  0  0  0
 25 63  1  0  0  0  0
 26 64  1  0  0  0  0
 26 65  1  0  0  0  0
 29 66  1  0  0  0  0
 30 67  1  0  0  0  0
 31 68  1  0  0  0  0
 32 69  1  0  0  0  0
 35 70  1  0  0  0  0
 16 71  2  0  0  0  0
 16 72  2  0  0  0  0
 19 73  1  0  0  0  0
 22 74  1  0  0  0  0
M  END
> <OPENEYE_ISO_SMILES>
CC(C)C[C@@H](C(=O)N[C@@H](C[C@@H]1CCNC1=O)[C@H](O)S(=O)(=O)O)NC(=O)OC2CC3(C2)CCN(CC3)C#N

> <OPENEYE_INCHI>
InChI=1S/C23H37N5O8S/c1-14(2)9-17(27-22(32)36-16-11-23(12-16)4-7-28(13-24)8-5-23)20(30)26-18(21(31)37(33,34)35)10-15-3-6-25-19(15)29/h14-18,21,31H,3-12H2,1-2H3,(H,25,29)(H,26,30)(H,27,32)(H,33,34,35)/t15-,17-,18-,21+/m0/s1

> <OPENEYE_INCHIKEY>
CSWBWWIUTWLAOZ-QUJKESNLSA-N

> <FORMULA>
C23H37N5O8S

$$$$
