EQS
  -OEChem-02242320023D

 74 76  0     1  0  0  0  0  0999 V2000
   -0.3000    1.3600    0.5400 C   0  0  2  0  0  0  0  0  0  0  0  0
   -1.1330    2.0410    3.3540 C   0  0  0  0  0  0  0  0  0  0  0  0
   -1.5330    0.9150   -0.2040 C   0  0  0  0  0  0  0  0  0  0  0  0
   -4.4330   -1.1480    0.5910 C   0  0  0  0  0  0  0  0  0  0  0  0
   -3.4410   -2.2900    0.8190 C   0  0  1  0  0  0  0  0  0  0  0  0
   -4.0710   -3.3780    1.6600 C   0  0  0  0  0  0  0  0  0  0  0  0
   -2.9790   -4.4660   -0.0770 C   0  0  0  0  0  0  0  0  0  0  0  0
   -3.1050   -2.9900   -0.5180 C   0  0  0  0  0  0  0  0  0  0  0  0
   -4.7710    1.0720   -0.5040 C   0  0  1  0  0  0  0  0  0  0  0  0
    5.6060    1.7200   -0.7690 C   0  0  0  0  0  0  0  0  0  0  0  0
   -1.9420    4.2410    2.4880 C   0  0  0  0  0  0  0  0  0  0  0  0
   -6.1230    0.4520   -1.5420 S   0  0  0  0  0  0  0  0  0  0  0  0
    9.9420   -1.6070   -0.1610 C   0  0  0  0  0  0  0  0  0  0  0  0
    7.9700   -1.2540   -1.5760 C   0  0  0  0  0  0  0  0  0  0  0  0
    7.3370    0.1270   -1.7790 C   0  0  0  0  0  0  0  0  0  0  0  0
    5.1410   -0.3370   -0.5470 C   0  0  0  0  0  0  0  0  0  0  0  0
    3.1620    1.1900   -0.6780 O   0  0  0  0  0  0  0  0  0  0  0  0
    2.0910    1.1220    0.1350 C   0  0  0  0  0  0  0  0  0  0  0  0
   -0.5020    2.7870    1.0550 C   0  0  0  0  0  0  0  0  0  0  0  0
   -1.6090    2.7960    2.1110 C   0  0  0  0  0  0  0  0  0  0  0  0
   -3.7680   -0.0540   -0.2470 C   0  0  1  0  0  0  0  0  0  0  0  0
    6.4540    0.4560   -0.5770 C   0  0  0  0  0  0  0  0  0  0  0  0
    4.4630    0.9610   -0.0750 C   0  0  0  0  0  0  0  0  0  0  0  0
    7.2130    0.4280    0.7480 C   0  0  0  0  0  0  0  0  0  0  0  0
    7.8470   -0.9560    0.9350 C   0  0  0  0  0  0  0  0  0  0  0  0
   11.0420   -1.8790   -0.0750 N   0  0  0  0  0  0  0  0  0  0  0  0
    8.6300   -1.2830   -0.2640 N   0  0  0  0  0  0  0  0  0  0  0  0
    0.8540    1.3250   -0.3610 N   0  0  0  0  0  0  0  0  0  0  0  0
   -2.6110    0.4790    0.4770 N   0  0  0  0  0  0  0  0  0  0  0  0
   -3.8010   -4.5850    1.1330 N   0  0  0  0  0  0  0  0  0  0  0  0
   -4.7240   -3.1900    2.6650 O   0  0  0  0  0  0  0  0  0  0  0  0
   -4.1140    2.1510   -1.1720 O   0  0  0  0  0  0  0  0  0  0  0  0
   -1.5540    0.9490   -1.4160 O   0  0  0  0  0  0  0  0  0  0  0  0
    2.2390    0.8770    1.3160 O   0  0  0  0  0  0  0  0  0  0  0  0
   -6.8500   -0.5520   -0.6600 O   0  0  0  0  0  0  0  0  0  0  0  0
   -0.1240    0.6920    1.3830 H   0  0  0  0  0  0  0  0  0  0  0  0
   -0.1890    2.4640    3.6970 H   0  0  0  0  0  0  0  0  0  0  0  0
   -1.8800    2.1330    4.1430 H   0  0  0  0  0  0  0  0  0  0  0  0
   -0.9920    0.9880    3.1080 H   0  0  0  0  0  0  0  0  0  0  0  0
   -5.3090   -1.5270    0.0640 H   0  0  0  0  0  0  0  0  0  0  0  0
   -4.7390   -0.7340    1.5520 H   0  0  0  0  0  0  0  0  0  0  0  0
   -2.5330   -1.9160    1.2930 H   0  0  0  0  0  0  0  0  0  0  0  0
   -3.3590   -5.1260   -0.8580 H   0  0  0  0  0  0  0  0  0  0  0  0
   -3.9140   -2.8660   -1.2370 H   0  0  0  0  0  0  0  0  0  0  0  0
   -5.1740    1.4240    0.4450 H   0  0  0  0  0  0  0  0  0  0  0  0
    5.9680    2.5790   -0.2030 H   0  0  0  0  0  0  0  0  0  0  0  0
    5.4030    1.9570   -1.8130 H   0  0  0  0  0  0  0  0  0  0  0  0
   -2.2810    4.7780    1.6030 H   0  0  0  0  0  0  0  0  0  0  0  0
   -2.7300    4.2470    3.2410 H   0  0  0  0  0  0  0  0  0  0  0  0
   -1.0530    4.7260    2.8900 H   0  0  0  0  0  0  0  0  0  0  0  0
    7.1950   -2.0200   -1.6120 H   0  0  0  0  0  0  0  0  0  0  0  0
    8.7040   -1.4390   -2.3600 H   0  0  0  0  0  0  0  0  0  0  0  0
    8.1220    0.8780   -1.8700 H   0  0  0  0  0  0  0  0  0  0  0  0
    6.7330    0.1210   -2.6860 H   0  0  0  0  0  0  0  0  0  0  0  0
    4.8090   -0.6700   -1.5310 H   0  0  0  0  0  0  0  0  0  0  0  0
    5.1280   -1.1340    0.1960 H   0  0  0  0  0  0  0  0  0  0  0  0
    0.4260    3.1480    1.4970 H   0  0  0  0  0  0  0  0  0  0  0  0
   -0.7860    3.4350    0.2260 H   0  0  0  0  0  0  0  0  0  0  0  0
   -2.4990    2.3100    1.7100 H   0  0  0  0  0  0  0  0  0  0  0  0
   -3.4400   -0.4730   -1.1980 H   0  0  0  0  0  0  0  0  0  0  0  0
    4.4550    1.0790    1.0090 H   0  0  0  0  0  0  0  0  0  0  0  0
    7.9940    1.1880    0.7370 H   0  0  0  0  0  0  0  0  0  0  0  0
    6.5230    0.6270    1.5680 H   0  0  0  0  0  0  0  0  0  0  0  0
    8.5010   -0.9430    1.8070 H   0  0  0  0  0  0  0  0  0  0  0  0
    7.0630   -1.7010    1.0740 H   0  0  0  0  0  0  0  0  0  0  0  0
    0.7290    1.4480   -1.3150 H   0  0  0  0  0  0  0  0  0  0  0  0
   -2.6200    0.5170    1.4460 H   0  0  0  0  0  0  0  0  0  0  0  0
   -4.1100   -5.4260    1.5040 H   0  0  0  0  0  0  0  0  0  0  0  0
   -3.3780    2.5330   -0.6740 H   0  0  0  0  0  0  0  0  0  0  0  0
   -7.6090   -0.9730   -1.0860 H   0  0  0  0  0  0  0  0  0  0  0  0
   -7.0830    1.4740   -1.7740 O   0  0  0  0  0  0  0  0  0  0  0  0
   -5.6110   -0.3290   -2.6140 O   0  0  0  0  0  0  0  0  0  0  0  0
   -1.9400   -4.7050    0.1460 H   0  0  0  0  0  0  0  0  0  0  0  0
   -2.1630   -2.6230   -0.9250 H   0  0  0  0  0  0  0  0  0  0  0  0
 13 26  3  0  0  0  0
 25 27  1  0  0  0  0
 24 25  1  0  0  0  0
 13 27  1  0  0  0  0
 14 27  1  0  0  0  0
 22 24  1  0  0  0  0
  6 31  2  0  0  0  0
 10 22  1  0  0  0  0
 15 22  1  0  0  0  0
 16 22  1  0  0  0  0
 10 23  1  0  0  0  0
 14 15  1  0  0  0  0
  6 30  1  0  0  0  0
  5  6  1  0  0  0  0
 16 23  1  0  0  0  0
 17 23  1  0  0  0  0
  7 30  1  0  0  0  0
 18 34  2  0  0  0  0
 17 18  1  0  0  0  0
 18 28  1  0  0  0  0
  4  5  1  0  0  0  0
  5  8  1  0  0  0  0
 11 20  1  0  0  0  0
  7  8  1  0  0  0  0
  4 21  1  0  0  0  0
  1 28  1  0  0  0  0
  1  3  1  0  0  0  0
  1 19  1  0  0  0  0
  3 29  1  0  0  0  0
 21 29  1  0  0  0  0
  9 12  1  0  0  0  0
 19 20  1  0  0  0  0
  2 20  1  0  0  0  0
  3 33  2  0  0  0  0
  9 21  1  0  0  0  0
  9 32  1  0  0  0  0
 12 35  1  0  0  0  0
  1 36  1  0  0  0  0
  2 37  1  0  0  0  0
  2 38  1  0  0  0  0
  2 39  1  0  0  0  0
  4 40  1  0  0  0  0
  4 41  1  0  0  0  0
  5 42  1  0  0  0  0
  7 43  1  0  0  0  0
  8 44  1  0  0  0  0
  9 45  1  0  0  0  0
 10 46  1  0  0  0  0
 10 47  1  0  0  0  0
 11 48  1  0  0  0  0
 11 49  1  0  0  0  0
 11 50  1  0  0  0  0
 14 51  1  0  0  0  0
 14 52  1  0  0  0  0
 15 53  1  0  0  0  0
 15 54  1  0  0  0  0
 16 55  1  0  0  0  0
 16 56  1  0  0  0  0
 19 57  1  0  0  0  0
 19 58  1  0  0  0  0
 20 59  1  0  0  0  0
 21 60  1  0  0  0  0
 23 61  1  0  0  0  0
 24 62  1  0  0  0  0
 24 63  1  0  0  0  0
 25 64  1  0  0  0  0
 25 65  1  0  0  0  0
 28 66  1  0  0  0  0
 29 67  1  0  0  0  0
 30 68  1  0  0  0  0
 32 69  1  0  0  0  0
 35 70  1  0  0  0  0
 12 71  2  0  0  0  0
 12 72  2  0  0  0  0
  7 73  1  0  0  0  0
  8 74  1  0  0  0  0
M  END
> <OPENEYE_ISO_SMILES>
CC(C)C[C@@H](C(=O)N[C@@H](C[C@@H]1CCNC1=O)[C@@H](O)S(=O)(=O)O)NC(=O)OC2CC3(C2)CCN(CC3)C#N

> <OPENEYE_INCHI>
InChI=1S/C23H37N5O8S/c1-14(2)9-17(27-22(32)36-16-11-23(12-16)4-7-28(13-24)8-5-23)20(30)26-18(21(31)37(33,34)35)10-15-3-6-25-19(15)29/h14-18,21,31H,3-12H2,1-2H3,(H,25,29)(H,26,30)(H,27,32)(H,33,34,35)/t15-,17-,18-,21-/m0/s1

> <OPENEYE_INCHIKEY>
CSWBWWIUTWLAOZ-DBSRCYSRSA-N

> <FORMULA>
C23H37N5O8S

$$$$
