@<TRIPOS>MOLECULE
/home/pku/3cl/gett_pdb/7M90/7M90_mol2/ligand/7M90_YTS.pdb
 61 65 0 0 0
SMALL
GASTEIGER

@<TRIPOS>ATOM
      1  C1         7.7480   -1.8040   21.6500 C.ar  401  YTS401      0.2635
      2  C2         8.3050   -2.0980   19.2880 C.ar  401  YTS401      0.0675
      3  C3         7.1300   -2.0360   18.5400 C.ar  401  YTS401      0.0514
      4  C4         8.0560   -3.3740   16.8800 C.ar  401  YTS401      0.0277
      5  C5         9.2590   -3.4600   17.5730 C.ar  401  YTS401     -0.0416
      6  C6         9.3880   -2.8040   18.7890 C.ar  401  YTS401     -0.0348
      7  C7         9.1110   -0.2530   20.5480 C.ar  401  YTS401      0.0212
      8  C8         9.2330    0.5060   21.7060 C.ar  401  YTS401      0.0060
      9  C9        10.1090    1.8420   21.7180 C.ar  401  YTS401      0.0640
     10  C11       10.7760    2.1700   22.8910 C.ar  401  YTS401      0.0193
     11  C12       11.6620    4.0660   21.8840 C.ar  401  YTS401      0.3267
     12  C13        8.5760    0.0920   22.8610 C.ar  401  YTS401     -0.0395
     13  C14        7.8220   -1.0780   22.8410 C.ar  401  YTS401      0.0477
     14  C15        7.0910   -1.5410   24.1330 C.ar  401  YTS401     -0.0078
     15  C16        6.1210   -0.7030   24.6740 C.ar  401  YTS401     -0.0353
     16  C17        5.4410   -1.0740   25.8270 C.ar  401  YTS401      0.0450
     17  C22        6.4940   -8.5990   26.8550 C.3   401  YTS401      0.0758
     18  C23        5.2430   -6.7050   26.5460 C.3   401  YTS401      0.0151
     19  C24        4.2020   -7.4870   25.6600 C.3   401  YTS401      0.0244
     20  C25        5.1710   -9.3520   26.8160 C.2   401  YTS401      0.2272
     21  C10       10.2760    2.6760   20.6060 C.ar  401  YTS401      0.2617
     22  C18        5.7260   -2.2820   26.4560 C.ar  401  YTS401     -0.0016
     23  C19        6.6950   -3.1130   25.9220 C.ar  401  YTS401      0.1225
     24  C20        7.7880   -5.3230   26.1110 C.3   401  YTS401      0.1023
     25  C21        7.3830   -6.5950   26.9300 C.3   401  YTS401      0.0336
     26  C26        7.3830   -2.7590   24.7610 C.ar  401  YTS401     -0.0120
     27  N1         8.3840   -1.3750   20.5430 N.ar  401  YTS401     -0.2816
     28  N2         7.0270   -2.6720   17.3670 N.ar  401  YTS401     -0.2612
     29  N3        11.0430    3.7730   20.7310 N.ar  401  YTS401     -0.2746
     30  N4        11.5270    3.2740   22.9570 N.ar  401  YTS401     -0.3137
     31  N5         6.4830   -7.3020   26.3810 N.3   401  YTS401     -0.2893
     32  N6         4.0670   -8.7840   26.2340 N.am  401  YTS401     -0.3130
     33  O1         6.9940   -3.0040   21.6040 O.2   401  YTS401     -0.2667
     34  O2         9.6720    2.4240   19.3920 O.2   401  YTS401     -0.2671
     35  O3        12.4510    5.2230   21.9650 O.2   401  YTS401     -0.2467
     36  O4         6.9440   -4.3150   26.6350 O.3   401  YTS401     -0.4906
     37  O5         5.0670  -10.4380   27.2890 O.2   401  YTS401     -0.2744
     38 CL1         4.1900   -0.0090   26.5310 Cl    401  YTS401     -0.0834
     39  H1         6.2840   -1.4620   18.9160 H     401  YTS401      0.0851
     40  H2         7.9500   -3.8930   15.9160 H     401  YTS401      0.0829
     41  H3        10.0870   -4.0320   17.1670 H     401  YTS401      0.0633
     42  H4        10.3490   -2.8460   19.3570 H     401  YTS401      0.0639
     43  H5         9.6120    0.0680   19.6380 H     401  YTS401      0.0820
     44  H7        10.6870    1.5230   23.7640 H     401  YTS401      0.0816
     45  H9         8.6510    0.6840   23.7830 H     401  YTS401      0.0632
     46  H10        5.8900    0.2590   24.1860 H     401  YTS401      0.0638
     47  H16        6.8370   -8.5730   27.9050 H     401  YTS401      0.0522
     48  H17        7.2260   -9.1710   26.2560 H     401  YTS401      0.0522
     49  H18        4.9430   -6.7570   27.6040 H     401  YTS401      0.0442
     50  H19        5.2900   -5.6540   26.2240 H     401  YTS401      0.0442
     51  H20        3.2430   -6.9710   25.6650 H     401  YTS401      0.0474
     52  H21        4.5640   -7.5640   24.6360 H     401  YTS401      0.0474
     53  H11        5.1880   -2.5730   27.3640 H     401  YTS401      0.0669
     54  H12        8.8340   -5.0760   26.2710 H     401  YTS401      0.0709
     55  H13        7.6080   -5.4690   25.0510 H     401  YTS401      0.0709
     56  H14        7.0230   -6.2780   27.8880 H     401  YTS401      0.0460
     57  H15        8.2560   -7.2040   27.0590 H     401  YTS401      0.0460
     58  H23        8.1300   -3.4140   24.3530 H     401  YTS401      0.0660
     59  H6        11.1540    4.3840   19.9460 H     401  YTS401      0.1734
     60  H8        11.9980    3.5130   23.8230 H     401  YTS401      0.1698
     61  H22        3.1810   -9.2730   26.2130 H     401  YTS401      0.1488
@<TRIPOS>BOND
     1    40     4    1
     2     4    28   ar
     3     4     5   ar
     4    41     5    1
     5    28     3   ar
     6     5     6   ar
     7     3    39    1
     8     3     2   ar
     9     6     2   ar
    10     6    42    1
    11     2    27    1
    12    34    21    2
    13    43     7    1
    14    59    29    1
    15    27     7   ar
    16    27     1   ar
    17     7     8   ar
    18    21    29   ar
    19    21     9   ar
    20    29    11   ar
    21    33     1    2
    22     1    13   ar
    23     8     9    1
    24     8    12   ar
    25     9    10   ar
    26    11    35    2
    27    11    30   ar
    28    13    12   ar
    29    13    14    1
    30    12    45    1
    31    10    30   ar
    32    10    44    1
    33    30    60    1
    34    14    15   ar
    35    14    26   ar
    36    46    15    1
    37    58    26    1
    38    52    19    1
    39    15    16   ar
    40    26    23   ar
    41    55    24    1
    42    19    51    1
    43    19    32    1
    44    19    18    1
    45    16    22   ar
    46    16    38    1
    47    23    22   ar
    48    23    36    1
    49    24    54    1
    50    24    36    1
    51    24    25    1
    52    61    32    1
    53    50    18    1
    54    32    20   am
    55    48    17    1
    56    31    18    1
    57    31    17    1
    58    31    25    1
    59    22    53    1
    60    18    49    1
    61    20    17    1
    62    20    37    2
    63    17    47    1
    64    25    57    1
    65    25    56    1
