@<TRIPOS>MOLECULE
/home/pku/3cl/gett_pdb/5SQV/5SQV_mol2/ligand/5SQV_QVX.pdb
 47 50 0 0 0
SMALL
GASTEIGER

@<TRIPOS>ATOM
      1  C18      -49.6480  -29.0820    6.5170 C.ar  201  QVX201      0.0314
      2  C16      -47.6000  -29.3320    5.2840 C.ar  201  QVX201     -0.0479
      3  C17      -48.2760  -29.2570    6.4920 C.ar  201  QVX201     -0.0398
      4  C15      -48.3020  -29.2180    4.0960 C.ar  201  QVX201      0.0368
      5  C14      -47.6110  -29.3220    2.7380 C.2   201  QVX201      0.2445
      6  C12      -45.7700  -30.2340    1.3090 C.3   201  QVX201      0.0580
      7  C11      -46.0660  -31.6450    0.7770 C.ar  201  QVX201     -0.0199
      8  C10      -47.2370  -32.3870    0.7650 C.ar  201  QVX201     -0.0563
      9  C20      -51.7670  -29.0710    7.8680 C.ar  201  QVX201      0.0497
     10  C02      -43.6870  -30.2010    2.7020 C.2   201  QVX201      0.0926
     11  C03      -44.2870  -30.0590    1.2890 C.3   201  QVX201      0.0343
     12  C04      -43.7510  -31.1300    0.3830 C.3   201  QVX201     -0.0132
     13  C05      -44.9010  -32.1780    0.2060 C.ar  201  QVX201     -0.0003
     14  C06      -44.9180  -33.4510   -0.3600 C.ar  201  QVX201      0.1204
     15  C08      -46.0970  -34.1910   -0.3630 C.ar  201  QVX201     -0.0199
     16  C09      -47.2600  -33.6570    0.2010 C.ar  201  QVX201     -0.0580
     17  C21      -52.4490  -28.1590    8.6520 C.ar  201  QVX201      0.0487
     18  C23      -54.4650  -29.0620    8.0430 C.ar  201  QVX201      0.0277
     19  C24      -53.8570  -30.0060    7.2370 C.ar  201  QVX201     -0.0418
     20  C25      -52.4780  -30.0240    7.1520 C.ar  201  QVX201     -0.0376
     21  C26      -50.3470  -28.9860    5.3190 C.ar  201  QVX201     -0.0398
     22  C27      -49.6730  -29.0580    4.1180 C.ar  201  QVX201     -0.0479
     23  N13      -46.3880  -30.0990    2.6110 N.am  201  QVX201     -0.3039
     24  N19      -50.3210  -29.0220    7.8040 N.pl3 201  QVX201     -0.3133
     25  N22      -53.7630  -28.1770    8.7210 N.ar  201  QVX201     -0.2614
     26  O01      -43.5630  -31.3390    3.2290 O.co2 201  QVX201     -0.8473
     27  O07      -43.7650  -33.9930   -0.9320 O.3   201  QVX201     -0.5065
     28  O28      -48.0990  -28.8150    1.7850 O.2   201  QVX201     -0.2702
     29  O29      -43.3250  -29.1730    3.3310 O.co2 201  QVX201     -0.3086
     30 H161      -46.5260  -29.4580    5.2750 H     201  QVX201      0.0626
     31 H171      -47.7340  -29.3340    7.4250 H     201  QVX201      0.0636
     32 H121      -46.2030  -29.5140    0.6290 H     201  QVX201      0.0555
     33 H101      -48.1340  -31.9770    1.2020 H     201  QVX201      0.0621
     34 H031      -44.0610  -29.0890    0.8690 H     201  QVX201      0.0393
     35 H042      -42.9440  -31.6190    0.8920 H     201  QVX201      0.0322
     36 H041      -43.4100  -30.7190   -0.5470 H     201  QVX201      0.0322
     37 H081      -46.1190  -35.1780   -0.8010 H     201  QVX201      0.0654
     38 H091      -48.1760  -34.2300    0.2030 H     201  QVX201      0.0619
     39 H211      -51.8900  -27.4230    9.2210 H     201  QVX201      0.0848
     40 H231      -55.5400  -29.0490    8.1160 H     201  QVX201      0.0829
     41 H241      -54.4440  -30.7260    6.6840 H     201  QVX201      0.0633
     42 H251      -51.9610  -30.7410    6.5210 H     201  QVX201      0.0637
     43 H261      -51.4270  -28.8570    5.3090 H     201  QVX201      0.0636
     44 H271      -50.2240  -28.9810    3.1900 H     201  QVX201      0.0626
     45 H131      -45.9930  -30.5470    3.4120 H     201  QVX201      0.1496
     46 H191      -49.7890  -28.9360    8.6460 H     201  QVX201      0.1522
     47 H071      -43.8750  -34.0220   -1.8760 H     201  QVX201      0.2921
@<TRIPOS>UNITY_ATOM_ATTR
26 1
charge -1
@<TRIPOS>BOND
     1    47    27    1
     2    27    14    1
     3    37    15    1
     4    36    12    1
     5    15    14   ar
     6    15    16   ar
     7    14    13   ar
     8    16    38    1
     9    16     8   ar
    10    13    12    1
    11    13     7   ar
    12    12    35    1
    13    12    11    1
    14    32     6    1
    15     8     7   ar
    16     8    33    1
    17     7     6    1
    18    34    11    1
    19    11     6    1
    20    11    10    1
    21     6    23    1
    22    28     5    2
    23    23     5   am
    24    23    45    1
    25    10    26   ar
    26    10    29   ar
    27     5     4    1
    28    44    22    1
    29     4    22   ar
    30     4     2   ar
    31    22    21   ar
    32    30     2    1
    33     2     3   ar
    34    43    21    1
    35    21     1   ar
    36     3     1   ar
    37     3    31    1
    38     1    24    1
    39    42    20    1
    40    41    19    1
    41    20    19   ar
    42    20     9   ar
    43    19    18   ar
    44    24     9    1
    45    24    46    1
    46     9    17   ar
    47    18    40    1
    48    18    25   ar
    49    17    25   ar
    50    17    39    1
