XF4
  -OEChem-02242320043D

 55 59  0     0  0  0  0  0  0999 V2000
   -0.9610    1.4030   -0.5200 C   0  0  0  0  0  0  0  0  0  0  0  0
   -1.6730   -0.8280    0.0670 C   0  0  0  0  0  0  0  0  0  0  0  0
   -0.6820    0.0210   -0.3940 C   0  0  0  0  0  0  0  0  0  0  0  0
    0.6550   -0.5100   -0.7500 C   0  0  0  0  0  0  0  0  0  0  0  0
    0.7940   -1.3920   -1.8210 C   0  0  0  0  0  0  0  0  0  0  0  0
   -2.4320    3.2530   -0.3230 C   0  0  0  0  0  0  0  0  0  0  0  0
    2.0410   -1.8850   -2.1510 C   0  0  0  0  0  0  0  0  0  0  0  0
    3.1540   -1.5050   -1.4220 C   0  0  0  0  0  0  0  0  0  0  0  0
    3.0240   -0.6270   -0.3550 C   0  0  0  0  0  0  0  0  0  0  0  0
    5.3740   -0.8100   -0.0460 C   0  0  0  0  0  0  0  0  0  0  0  0
    6.4650   -0.2900    0.8540 C   0  0  0  0  0  0  0  0  0  0  0  0
    1.7770   -0.1240   -0.0200 C   0  0  0  0  0  0  0  0  0  0  0  0
   -3.2730    3.7240   -1.3220 C   0  0  0  0  0  0  0  0  0  0  0  0
   -2.9860    5.9010   -0.6260 C   0  0  0  0  0  0  0  0  0  0  0  0
   -2.1390    5.5100    0.3940 C   0  0  0  0  0  0  0  0  0  0  0  0
   -1.8510    4.1640    0.5560 C   0  0  0  0  0  0  0  0  0  0  0  0
   -3.1590    1.0580    0.2510 C   0  0  0  0  0  0  0  0  0  0  0  0
   -2.9330   -0.2920    0.3970 C   0  0  0  0  0  0  0  0  0  0  0  0
   -4.0150   -1.1790    0.8920 C   0  0  0  0  0  0  0  0  0  0  0  0
   -4.4910   -1.0560    2.1630 C   0  0  0  0  0  0  0  0  0  0  0  0
   -4.6020   -2.2070    0.0230 C   0  0  0  0  0  0  0  0  0  0  0  0
   -6.0100   -2.8260    1.7830 C   0  0  0  0  0  0  0  0  0  0  0  0
    6.7960   -0.9770    2.0070 C   0  0  0  0  0  0  0  0  0  0  0  0
    7.7970   -0.4990    2.8320 C   0  0  0  0  0  0  0  0  0  0  0  0
    8.4670    0.6650    2.5050 C   0  0  0  0  0  0  0  0  0  0  0  0
    8.1360    1.3510    1.3520 C   0  0  0  0  0  0  0  0  0  0  0  0
    7.1390    0.8710    0.5230 C   0  0  0  0  0  0  0  0  0  0  0  0
   -2.1760    1.8820   -0.1960 N   0  0  0  0  0  0  0  0  0  0  0  0
   -3.5210    5.0130   -1.4410 N   0  0  0  0  0  0  0  0  0  0  0  0
   -5.5840   -2.9900    0.5180 N   0  0  0  0  0  0  0  0  0  0  0  0
   -5.4880   -1.8880    2.5910 N   0  0  0  0  0  0  0  0  0  0  0  0
   -0.0950    2.1640   -0.9200 O   0  0  0  0  0  0  0  0  0  0  0  0
    4.1200   -0.2570    0.3580 O   0  0  0  0  0  0  0  0  0  0  0  0
   -4.2130   -2.3490   -1.1210 O   0  0  0  0  0  0  0  0  0  0  0  0
   -6.8950   -3.5440    2.2060 O   0  0  0  0  0  0  0  0  0  0  0  0
    2.2130   -2.9840   -3.4840 Cl  0  0  0  0  0  0  0  0  0  0  0  0
   -1.4830   -1.8870    0.1710 H   0  0  0  0  0  0  0  0  0  0  0  0
   -0.0730   -1.6910   -2.3910 H   0  0  0  0  0  0  0  0  0  0  0  0
    4.1270   -1.8960   -1.6810 H   0  0  0  0  0  0  0  0  0  0  0  0
    5.5830   -0.5210   -1.0760 H   0  0  0  0  0  0  0  0  0  0  0  0
    5.3310   -1.8970    0.0260 H   0  0  0  0  0  0  0  0  0  0  0  0
    1.6750    0.5600    0.8100 H   0  0  0  0  0  0  0  0  0  0  0  0
   -3.7300    3.0260   -2.0090 H   0  0  0  0  0  0  0  0  0  0  0  0
   -3.2140    6.9490   -0.7560 H   0  0  0  0  0  0  0  0  0  0  0  0
   -1.7060    6.2440    1.0570 H   0  0  0  0  0  0  0  0  0  0  0  0
   -1.1920    3.8300    1.3440 H   0  0  0  0  0  0  0  0  0  0  0  0
   -4.1250    1.4670    0.5040 H   0  0  0  0  0  0  0  0  0  0  0  0
   -4.0840   -0.3080    2.8270 H   0  0  0  0  0  0  0  0  0  0  0  0
    6.2730   -1.8860    2.2630 H   0  0  0  0  0  0  0  0  0  0  0  0
    8.0560   -1.0360    3.7340 H   0  0  0  0  0  0  0  0  0  0  0  0
    9.2490    1.0380    3.1500 H   0  0  0  0  0  0  0  0  0  0  0  0
    8.6630    2.2580    1.0930 H   0  0  0  0  0  0  0  0  0  0  0  0
    6.8800    1.4070   -0.3780 H   0  0  0  0  0  0  0  0  0  0  0  0
   -5.9810   -3.6770   -0.0400 H   0  0  0  0  0  0  0  0  0  0  0  0
   -5.8250   -1.8000    3.4960 H   0  0  0  0  0  0  0  0  0  0  0  0
 26 27  2  0  0  0  0
 25 26  1  0  0  0  0
 11 27  1  0  0  0  0
 20 31  1  0  0  0  0
 22 31  1  0  0  0  0
 24 25  2  0  0  0  0
 22 35  2  0  0  0  0
 19 20  2  0  0  0  0
 22 30  1  0  0  0  0
  9 33  1  0  0  0  0
 10 33  1  0  0  0  0
 10 11  1  0  0  0  0
 11 23  2  0  0  0  0
  8  9  2  0  0  0  0
  7  8  1  0  0  0  0
  7 36  1  0  0  0  0
  9 12  1  0  0  0  0
 23 24  1  0  0  0  0
  5  7  2  0  0  0  0
  4 12  2  0  0  0  0
  4  5  1  0  0  0  0
 18 19  1  0  0  0  0
 19 21  1  0  0  0  0
  3  4  1  0  0  0  0
  2  3  2  0  0  0  0
  2 18  1  0  0  0  0
 21 30  1  0  0  0  0
  1  3  1  0  0  0  0
 17 18  2  0  0  0  0
 21 34  2  0  0  0  0
  1 28  1  0  0  0  0
  1 32  2  0  0  0  0
 17 28  1  0  0  0  0
  6 28  1  0  0  0  0
  6 16  2  0  0  0  0
 15 16  1  0  0  0  0
  6 13  1  0  0  0  0
 14 15  2  0  0  0  0
 13 29  2  0  0  0  0
 14 29  1  0  0  0  0
  2 37  1  0  0  0  0
  5 38  1  0  0  0  0
  8 39  1  0  0  0  0
 10 40  1  0  0  0  0
 10 41  1  0  0  0  0
 12 42  1  0  0  0  0
 13 43  1  0  0  0  0
 14 44  1  0  0  0  0
 15 45  1  0  0  0  0
 16 46  1  0  0  0  0
 17 47  1  0  0  0  0
 20 48  1  0  0  0  0
 23 49  1  0  0  0  0
 24 50  1  0  0  0  0
 25 51  1  0  0  0  0
 26 52  1  0  0  0  0
 27 53  1  0  0  0  0
 30 54  1  0  0  0  0
 31 55  1  0  0  0  0
M  END
> <OPENEYE_ISO_SMILES>
c1ccc(cc1)COc2cc(cc(c2)Cl)c3cc(cn(c3=O)c4cccnc4)c5c[nH]c(=O)[nH]c5=O

> <OPENEYE_INCHI>
InChI=1S/C27H19ClN4O4/c28-20-9-18(10-22(12-20)36-16-17-5-2-1-3-6-17)23-11-19(24-14-30-27(35)31-25(24)33)15-32(26(23)34)21-7-4-8-29-13-21/h1-15H,16H2,(H2,30,31,33,35)

> <OPENEYE_INCHIKEY>
IVPUTCRGJCQUQU-UHFFFAOYSA-N

> <FORMULA>
C27H19ClN4O4

$$$$
