LL0
  -OEChem-02242320033D

 21 21  0     0  0  0  0  0  0999 V2000
   -1.9300   -1.4340   -1.3120 N   0  0  0  0  0  0  0  0  0  0  0  0
    1.2100    2.6020   -0.0640 C   0  0  0  0  0  0  0  0  0  0  0  0
    1.5620    1.2670   -0.0360 C   0  0  0  0  0  0  0  0  0  0  0  0
    0.5760    0.2910    0.0140 C   0  0  0  0  0  0  0  0  0  0  0  0
    2.3150   -1.3290    0.0150 C   0  0  0  0  0  0  0  0  0  0  0  0
   -2.0160   -0.5750    0.1000 S   0  0  0  0  0  0  0  0  0  0  0  0
   -3.2590    0.1140    0.0770 O   0  0  0  0  0  0  0  0  0  0  0  0
   -1.6440   -1.4710    1.1380 O   0  0  0  0  0  0  0  0  0  0  0  0
   -0.7610    0.6600    0.0360 C   0  0  0  0  0  0  0  0  0  0  0  0
   -1.1080    1.9980    0.0080 C   0  0  0  0  0  0  0  0  0  0  0  0
   -0.1240    2.9670   -0.0370 C   0  0  0  0  0  0  0  0  0  0  0  0
    0.9200   -1.0230    0.0410 O   0  0  0  0  0  0  0  0  0  0  0  0
    2.8840   -0.8160   -1.1550 F   0  0  0  0  0  0  0  0  0  0  0  0
    2.9390   -0.7540    1.1280 F   0  0  0  0  0  0  0  0  0  0  0  0
   -2.1880   -2.3690   -1.3280 H   0  0  0  0  0  0  0  0  0  0  0  0
   -1.6270   -1.0020   -2.1260 H   0  0  0  0  0  0  0  0  0  0  0  0
    1.9770    3.3610   -0.1030 H   0  0  0  0  0  0  0  0  0  0  0  0
    2.6030    0.9820   -0.0540 H   0  0  0  0  0  0  0  0  0  0  0  0
    2.4510   -2.4110    0.0410 H   0  0  0  0  0  0  0  0  0  0  0  0
   -2.1490    2.2860    0.0290 H   0  0  0  0  0  0  0  0  0  0  0  0
   -0.3970    4.0120   -0.0590 H   0  0  0  0  0  0  0  0  0  0  0  0
  6  7  2  0  0  0  0
 10 11  2  0  0  0  0
  9 10  1  0  0  0  0
  6  8  2  0  0  0  0
  6  9  1  0  0  0  0
  1  6  1  0  0  0  0
  2 11  1  0  0  0  0
  4  9  2  0  0  0  0
  2  3  2  0  0  0  0
  3  4  1  0  0  0  0
  4 12  1  0  0  0  0
  5 13  1  0  0  0  0
  5 12  1  0  0  0  0
  5 14  1  0  0  0  0
  1 15  1  0  0  0  0
  1 16  1  0  0  0  0
  2 17  1  0  0  0  0
  3 18  1  0  0  0  0
  5 19  1  0  0  0  0
 10 20  1  0  0  0  0
 11 21  1  0  0  0  0
M  END
> <OPENEYE_ISO_SMILES>
c1ccc(c(c1)OC(F)F)S(=O)(=O)N

> <OPENEYE_INCHI>
InChI=1S/C7H7F2NO3S/c8-7(9)13-5-3-1-2-4-6(5)14(10,11)12/h1-4,7H,(H2,10,11,12)

> <OPENEYE_INCHIKEY>
XDODAVQVIOWLPT-UHFFFAOYSA-N

> <FORMULA>
C7H7F2NO3S

$$$$
