3ZR
  -OEChem-02242320003D

 80 82  0     1  0  0  0  0  0999 V2000
   -0.8030   -1.4220   -0.0040 C   0  0  1  0  0  0  0  0  0  0  0  0
   -0.6030   -2.6600   -0.8800 C   0  0  0  0  0  0  0  0  0  0  0  0
    0.7010   -3.3580   -0.4880 C   0  0  0  0  0  0  0  0  0  0  0  0
    0.9760   -4.5080   -1.4590 C   0  0  0  0  0  0  0  0  0  0  0  0
    2.2800   -5.2050   -1.0670 C   0  0  0  0  0  0  0  0  0  0  0  0
    2.1560   -5.7570    0.3540 C   0  0  0  0  0  0  0  0  0  0  0  0
    1.8810   -4.6070    1.3250 C   0  0  0  0  0  0  0  0  0  0  0  0
    0.5770   -3.9090    0.9330 C   0  0  0  0  0  0  0  0  0  0  0  0
    0.3270   -0.4530   -0.2370 C   0  0  0  0  0  0  0  0  0  0  0  0
    2.4290    1.3880    1.2980 C   0  0  0  0  0  0  0  0  0  0  0  0
    1.1360    2.1320    1.0880 C   0  0  0  0  0  0  0  0  0  0  0  0
   -1.0030    2.8740    1.1360 C   0  0  0  0  0  0  0  0  0  0  0  0
    0.9080    3.3110    0.1970 C   0  0  0  0  0  0  0  0  0  0  0  0
    3.9540   -0.3500    0.3520 C   0  0  2  0  0  0  0  0  0  0  0  0
   -3.1990   -2.1130    1.0290 O   0  0  0  0  0  0  0  0  0  0  0  0
   -3.2250   -1.2360    0.1880 C   0  0  0  0  0  0  0  0  0  0  0  0
   -4.4030   -0.7200   -0.2100 O   0  0  0  0  0  0  0  0  0  0  0  0
   -5.6010   -1.2590    0.4080 C   0  0  0  0  0  0  0  0  0  0  0  0
   -6.8140   -0.5650   -0.1580 C   0  0  0  0  0  0  0  0  0  0  0  0
   -7.4420   -1.0760   -1.2780 C   0  0  0  0  0  0  0  0  0  0  0  0
   -8.5540   -0.4400   -1.7980 C   0  0  0  0  0  0  0  0  0  0  0  0
   -9.0390    0.7060   -1.1970 C   0  0  0  0  0  0  0  0  0  0  0  0
   -8.4110    1.2170   -0.0750 C   0  0  0  0  0  0  0  0  0  0  0  0
   -9.0190    2.6570    0.6800 Cl  0  0  0  0  0  0  0  0  0  0  0  0
   -7.3010    0.5780    0.4470 C   0  0  0  0  0  0  0  0  0  0  0  0
   -2.0750   -0.7810   -0.3470 N   0  0  0  0  0  0  0  0  0  0  0  0
    1.5300   -0.6710    0.3320 N   0  0  0  0  0  0  0  0  0  0  0  0
    2.5920    0.3300    0.2050 C   0  0  1  0  0  0  0  0  0  0  0  0
   -0.0490    1.8700    1.6590 C   0  0  0  0  0  0  0  0  0  0  0  0
   -0.3860    3.6640    0.3050 N   0  0  0  0  0  0  0  0  0  0  0  0
    1.7370    3.8500   -0.4970 O   0  0  0  0  0  0  0  0  0  0  0  0
    4.0470   -0.9560    1.6430 O   0  0  0  0  0  0  0  0  0  0  0  0
    0.1550    0.5220   -0.9380 O   0  0  0  0  0  0  0  0  0  0  0  0
   -0.8170   -1.7180    1.0450 H   0  0  0  0  0  0  0  0  0  0  0  0
   -1.4390   -3.3450   -0.7380 H   0  0  0  0  0  0  0  0  0  0  0  0
   -0.5540   -2.3600   -1.9270 H   0  0  0  0  0  0  0  0  0  0  0  0
    1.5220   -2.6420   -0.5300 H   0  0  0  0  0  0  0  0  0  0  0  0
    0.1540   -5.2230   -1.4180 H   0  0  0  0  0  0  0  0  0  0  0  0
    1.0640   -4.1150   -2.4720 H   0  0  0  0  0  0  0  0  0  0  0  0
    2.4760   -6.0250   -1.7590 H   0  0  0  0  0  0  0  0  0  0  0  0
    3.1010   -4.4900   -1.1090 H   0  0  0  0  0  0  0  0  0  0  0  0
    1.3340   -6.4720    0.3960 H   0  0  0  0  0  0  0  0  0  0  0  0
    3.0850   -6.2540    0.6340 H   0  0  0  0  0  0  0  0  0  0  0  0
    1.7930   -5.0000    2.3380 H   0  0  0  0  0  0  0  0  0  0  0  0
    2.7020   -3.8920    1.2830 H   0  0  0  0  0  0  0  0  0  0  0  0
    0.3810   -3.0900    1.6250 H   0  0  0  0  0  0  0  0  0  0  0  0
   -0.2450   -4.6240    0.9750 H   0  0  0  0  0  0  0  0  0  0  0  0
    3.2630    2.0890    1.2520 H   0  0  0  0  0  0  0  0  0  0  0  0
    2.4150    0.9030    2.2740 H   0  0  0  0  0  0  0  0  0  0  0  0
   -2.0480    2.9390    1.4000 H   0  0  0  0  0  0  0  0  0  0  0  0
    4.0630   -1.1150   -0.4170 H   0  0  0  0  0  0  0  0  0  0  0  0
   -5.6660   -2.3280    0.2050 H   0  0  0  0  0  0  0  0  0  0  0  0
   -5.5590   -1.0960    1.4850 H   0  0  0  0  0  0  0  0  0  0  0  0
   -7.0630   -1.9710   -1.7480 H   0  0  0  0  0  0  0  0  0  0  0  0
   -9.0440   -0.8390   -2.6740 H   0  0  0  0  0  0  0  0  0  0  0  0
   -9.9070    1.2030   -1.6040 H   0  0  0  0  0  0  0  0  0  0  0  0
   -6.8110    0.9760    1.3230 H   0  0  0  0  0  0  0  0  0  0  0  0
   -2.0890   -0.0280   -0.9590 H   0  0  0  0  0  0  0  0  0  0  0  0
    1.6920   -1.4900    0.8260 H   0  0  0  0  0  0  0  0  0  0  0  0
    2.5280    0.8060   -0.7740 H   0  0  0  0  0  0  0  0  0  0  0  0
   -0.2660    1.0800    2.3620 H   0  0  0  0  0  0  0  0  0  0  0  0
    3.9590   -0.3320    2.3770 H   0  0  0  0  0  0  0  0  0  0  0  0
    5.2770    0.8910    0.1660 P   0  0  0  0  0  0  0  0  0  0  0  0
    5.3470    1.7230    1.3870 O   0  0  0  0  0  0  0  0  0  0  0  0
    6.6860    0.1440   -0.0560 O   0  0  0  0  0  0  0  0  0  0  0  0
    4.9590    1.8270   -1.1050 O   0  0  0  0  0  0  0  0  0  0  0  0
    5.7550    2.9610   -1.4530 C   0  0  0  0  0  0  0  0  0  0  0  0
    5.1780    3.6230   -2.7070 C   0  0  0  0  0  0  0  0  0  0  0  0
    7.9320    0.8390   -0.1320 C   0  0  0  0  0  0  0  0  0  0  0  0
    9.0650   -0.1660   -0.3470 C   0  0  0  0  0  0  0  0  0  0  0  0
    5.7490    3.6760   -0.6300 H   0  0  0  0  0  0  0  0  0  0  0  0
    6.7780    2.6410   -1.6500 H   0  0  0  0  0  0  0  0  0  0  0  0
    5.1840    2.9080   -3.5300 H   0  0  0  0  0  0  0  0  0  0  0  0
    4.1550    3.9430   -2.5100 H   0  0  0  0  0  0  0  0  0  0  0  0
    5.7850    4.4890   -2.9730 H   0  0  0  0  0  0  0  0  0  0  0  0
    7.9060    1.5420   -0.9650 H   0  0  0  0  0  0  0  0  0  0  0  0
    8.1010    1.3840    0.7980 H   0  0  0  0  0  0  0  0  0  0  0  0
    9.0910   -0.8680    0.4870 H   0  0  0  0  0  0  0  0  0  0  0  0
    8.8960   -0.7100   -1.2760 H   0  0  0  0  0  0  0  0  0  0  0  0
   10.0150    0.3650   -0.4040 H   0  0  0  0  0  0  0  0  0  0  0  0
 14 32  1  0  0  0  0
 14 28  1  0  0  0  0
 27 28  1  0  0  0  0
 10 28  1  0  0  0  0
  6  7  1  0  0  0  0
  5  6  1  0  0  0  0
  7  8  1  0  0  0  0
  3  8  1  0  0  0  0
  9 27  1  0  0  0  0
  4  5  1  0  0  0  0
  3  4  1  0  0  0  0
 10 11  1  0  0  0  0
  2  3  1  0  0  0  0
  1  2  1  0  0  0  0
  1  9  1  0  0  0  0
  9 33  2  0  0  0  0
  1 26  1  0  0  0  0
 13 31  2  0  0  0  0
 11 13  1  0  0  0  0
 11 29  2  0  0  0  0
 13 30  1  0  0  0  0
 12 29  1  0  0  0  0
 16 26  1  0  0  0  0
 15 16  2  0  0  0  0
 12 30  2  0  0  0  0
 16 17  1  0  0  0  0
 17 18  1  0  0  0  0
 23 24  1  0  0  0  0
 23 25  2  0  0  0  0
 19 25  1  0  0  0  0
 18 19  1  0  0  0  0
 22 23  1  0  0  0  0
 19 20  2  0  0  0  0
 21 22  2  0  0  0  0
 20 21  1  0  0  0  0
  1 34  1  0  0  0  0
  2 35  1  0  0  0  0
  2 36  1  0  0  0  0
  3 37  1  0  0  0  0
  4 38  1  0  0  0  0
  4 39  1  0  0  0  0
  5 40  1  0  0  0  0
  5 41  1  0  0  0  0
  6 42  1  0  0  0  0
  6 43  1  0  0  0  0
  7 44  1  0  0  0  0
  7 45  1  0  0  0  0
  8 46  1  0  0  0  0
  8 47  1  0  0  0  0
 10 48  1  0  0  0  0
 10 49  1  0  0  0  0
 12 50  1  0  0  0  0
 14 51  1  0  0  0  0
 18 52  1  0  0  0  0
 18 53  1  0  0  0  0
 20 54  1  0  0  0  0
 21 55  1  0  0  0  0
 22 56  1  0  0  0  0
 25 57  1  0  0  0  0
 26 58  1  0  0  0  0
 27 59  1  0  0  0  0
 28 60  1  0  0  0  0
 29 61  1  0  0  0  0
 32 62  1  0  0  0  0
 14 63  1  0  0  0  0
 63 64  2  0  0  0  0
 63 65  1  0  0  0  0
 63 66  1  0  0  0  0
 66 67  1  0  0  0  0
 67 68  1  0  0  0  0
 65 69  1  0  0  0  0
 69 70  1  0  0  0  0
 67 71  1  0  0  0  0
 67 72  1  0  0  0  0
 68 73  1  0  0  0  0
 68 74  1  0  0  0  0
 68 75  1  0  0  0  0
 69 76  1  0  0  0  0
 69 77  1  0  0  0  0
 70 78  1  0  0  0  0
 70 79  1  0  0  0  0
 70 80  1  0  0  0  0
M  END
> <OPENEYE_ISO_SMILES>
CCOP(=O)([C@H]([C@H](CC1=CC=NC1=O)NC(=O)[C@H](CC2CCCCC2)NC(=O)OCc3cccc(c3)Cl)O)OCC

> <OPENEYE_INCHI>
InChI=1S/C28H39ClN3O8P/c1-3-39-41(37,40-4-2)27(35)24(17-21-13-14-30-25(21)33)31-26(34)23(16-19-9-6-5-7-10-19)32-28(36)38-18-20-11-8-12-22(29)15-20/h8,11-15,19,23-24,27,35H,3-7,9-10,16-18H2,1-2H3,(H,31,34)(H,32,36)/t23-,24-,27+/m0/s1

> <OPENEYE_INCHIKEY>
MWLFTRMZFWFMSR-NLJOTIRTSA-N

> <FORMULA>
C28H39ClN3O8P

$$$$
