@<TRIPOS>MOLECULE
/home/pku/3cl/gett_pdb/6LNQ/6LNQ_mol2/ligand/6LNQ_EJF.pdb
 37 39 0 0 0
SMALL
GASTEIGER

@<TRIPOS>ATOM
      1  C10      -26.4990  -10.4820    4.6870 C.2   401  EJF401      0.0084
      2  C13      -27.5430   -6.8090    5.4690 C.ar  401  EJF401      0.0001
      3  C15      -26.3210   -7.8690    7.2230 C.ar  401  EJF401      0.0187
      4  C20      -24.8250  -12.0350    1.9150 C.3   401  EJF401      0.0023
      5  C21      -23.8210  -14.2100    1.1400 C.3   401  EJF401      0.0023
      6  C24      -25.2810  -18.8400    6.6550 C.3   401  EJF401      0.0022
      7  C26      -24.8990  -17.5600    7.3800 C.3   401  EJF401      0.0001
      8  C28      -21.3110  -18.9660    2.2770 C.3   401  EJF401      0.1601
      9  C02      -23.3970  -18.2040    3.4180 C.2   401  EJF401      0.2616
     10  C03      -24.1500  -17.6710    4.6490 C.3   401  EJF401      0.1728
     11  C05      -24.2290  -15.3210    3.8420 C.2   401  EJF401      0.2616
     12  C06      -25.0310  -14.1030    3.4020 C.3   401  EJF401      0.1727
     13  C08      -25.2100  -12.6030    5.7240 C.2   401  EJF401      0.2683
     14  C09      -25.7870  -11.1480    5.6570 C.3   401  EJF401      0.2026
     15  C11      -26.7750   -9.1370    5.2040 C.ar  401  EJF401      0.0153
     16  C12      -27.4470   -8.0000    4.6940 C.ar  401  EJF401      0.0012
     17  C14      -26.9830   -6.7600    6.7210 C.ar  401  EJF401      0.0015
     18  C16      -26.2200   -9.0790    6.4370 C.ar  401  EJF401      0.0766
     19  C19      -24.1740  -13.3470    2.3480 C.3   401  EJF401      0.0290
     20  C23      -25.1460  -18.7630    5.1490 C.3   401  EJF401      0.0311
     21  C25      -26.6730  -19.3600    7.0770 C.3   401  EJF401      0.0001
     22  C29      -20.8450  -20.3490    2.5750 C.2   401  EJF401      0.2287
     23  C31      -20.0910  -18.0640    1.8910 C.3   401  EJF401      0.0389
     24  C32      -20.4180  -16.6460    1.5620 C.3   401  EJF401      0.0821
     25  C33      -21.0030  -16.5550    0.1660 C.3   401  EJF401      0.0326
     26  C34      -20.4690  -15.4450   -0.4000 C.3   401  EJF401      0.1156
     27  C36      -19.0680  -15.8610    1.4650 C.2   401  EJF401      0.2410
     28  N04      -24.9270  -16.5590    4.2190 N.am  401  EJF401     -0.1963
     29  N07      -24.9490  -13.6840    4.7760 N.am  401  EJF401     -0.1959
     30  N17      -25.6200  -10.3160    6.7020 N.2   401  EJF401     -0.2586
     31  N27      -21.9510  -18.4770    3.4790 N.am  401  EJF401     -0.1977
     32  N35      -19.1050  -15.1840    0.3080 N.am  401  EJF401     -0.2054
     33  O01      -23.9780  -18.3800    2.3950 O.2   401  EJF401     -0.2715
     34  O18      -24.9000  -12.9120    6.8190 O.2   401  EJF401     -0.2709
     35  O22      -23.0540  -15.2620    3.9950 O.2   401  EJF401     -0.2715
     36  O30      -21.0360  -21.1960    1.8090 O.2   401  EJF401     -0.2864
     37  O37      -18.1960  -15.8860    2.2460 O.2   401  EJF401     -0.2734
@<TRIPOS>BOND
     1    26    25    1
     2    26    32    1
     3    25    24    1
     4    32    27   am
     5     5    19    1
     6    27    24    1
     7    27    37    2
     8    24    23    1
     9    36    22    2
    10    23     8    1
    11     4    19    1
    12     8    22    1
    13     8    31    1
    14    19    12    1
    15    33     9    2
    16    12    11    1
    17    12    29    1
    18     9    31   am
    19     9    10    1
    20    11    35    2
    21    11    28   am
    22    28    10    1
    23    10    20    1
    24     1    15    2
    25     1    14    1
    26    16    15   ar
    27    16     2   ar
    28    29    13   am
    29    20     6    1
    30    15    18   ar
    31     2    17   ar
    32    14    13    1
    33    14    30    1
    34    13    34    2
    35    18    30    2
    36    18     3   ar
    37     6    21    1
    38     6     7    1
    39    17     3   ar
