LK6
  -OEChem-02242320033D

 29 30  0     1  0  0  0  0  0999 V2000
    0.6810    0.0410    0.5020 N   0  0  0  0  0  0  0  0  0  0  0  0
   -1.5860    0.0690   -1.5180 C   0  0  0  0  0  0  0  0  0  0  0  0
   -1.6020   -0.6710    1.1230 C   0  0  0  0  0  0  0  0  0  0  0  0
    1.8800   -0.0570   -0.1050 C   0  0  0  0  0  0  0  0  0  0  0  0
    2.9010    1.0390    0.0620 C   0  0  0  0  0  0  0  0  0  0  0  0
    4.2440    0.8680   -0.6510 C   0  0  0  0  0  0  0  0  0  0  0  0
    0.2590   -2.3520    0.8400 C   0  0  0  0  0  0  0  0  0  0  0  0
   -0.3120   -1.0240    0.3390 C   0  0  2  0  0  0  0  0  0  0  0  0
   -0.7150   -1.1470   -1.1410 C   0  0  0  0  0  0  0  0  0  0  0  0
   -2.3990    0.5740    0.0400 S   0  0  0  0  0  0  0  0  0  0  0  0
   -3.7910    0.3020   -0.0460 O   0  0  0  0  0  0  0  0  0  0  0  0
   -1.9510    1.8720    0.4060 O   0  0  0  0  0  0  0  0  0  0  0  0
    2.1370   -1.0270   -0.7860 O   0  0  0  0  0  0  0  0  0  0  0  0
    4.1590    0.7150    0.8700 C   0  0  0  0  0  0  0  0  0  0  0  0
    0.4760    0.8150    1.0500 H   0  0  0  0  0  0  0  0  0  0  0  0
   -0.9620    0.8770   -1.8990 H   0  0  0  0  0  0  0  0  0  0  0  0
   -2.3320   -0.2160   -2.2600 H   0  0  0  0  0  0  0  0  0  0  0  0
   -2.2380   -1.5490    1.2360 H   0  0  0  0  0  0  0  0  0  0  0  0
   -1.3600   -0.2440    2.0960 H   0  0  0  0  0  0  0  0  0  0  0  0
    2.4980    2.0490    0.1420 H   0  0  0  0  0  0  0  0  0  0  0  0
    4.3890   -0.0370   -1.2400 H   0  0  0  0  0  0  0  0  0  0  0  0
    4.7250    1.7650   -1.0400 H   0  0  0  0  0  0  0  0  0  0  0  0
    0.5070   -2.2660    1.8980 H   0  0  0  0  0  0  0  0  0  0  0  0
   -0.4820   -3.1400    0.7030 H   0  0  0  0  0  0  0  0  0  0  0  0
    1.1580   -2.5970    0.2750 H   0  0  0  0  0  0  0  0  0  0  0  0
   -1.2830   -2.0650   -1.2910 H   0  0  0  0  0  0  0  0  0  0  0  0
    0.1790   -1.1650   -1.7640 H   0  0  0  0  0  0  0  0  0  0  0  0
    4.5840    1.5110    1.4810 H   0  0  0  0  0  0  0  0  0  0  0  0
    4.2490   -0.2910    1.2800 H   0  0  0  0  0  0  0  0  0  0  0  0
  6 14  1  0  0  0  0
  5  6  1  0  0  0  0
  5 14  1  0  0  0  0
  4  5  1  0  0  0  0
  4 13  2  0  0  0  0
  1  4  1  0  0  0  0
  1  8  1  0  0  0  0
 10 12  2  0  0  0  0
  7  8  1  0  0  0  0
  3  8  1  0  0  0  0
  8  9  1  0  0  0  0
  2 10  1  0  0  0  0
  2  9  1  0  0  0  0
  3 10  1  0  0  0  0
 10 11  2  0  0  0  0
  1 15  1  0  0  0  0
  2 16  1  0  0  0  0
  2 17  1  0  0  0  0
  3 18  1  0  0  0  0
  3 19  1  0  0  0  0
  5 20  1  0  0  0  0
  6 21  1  0  0  0  0
  6 22  1  0  0  0  0
  7 23  1  0  0  0  0
  7 24  1  0  0  0  0
  7 25  1  0  0  0  0
  9 26  1  0  0  0  0
  9 27  1  0  0  0  0
 14 28  1  0  0  0  0
 14 29  1  0  0  0  0
M  END
> <OPENEYE_ISO_SMILES>
C[C@]1(CCS(=O)(=O)C1)NC(=O)C2CC2

> <OPENEYE_INCHI>
InChI=1S/C9H15NO3S/c1-9(4-5-14(12,13)6-9)10-8(11)7-2-3-7/h7H,2-6H2,1H3,(H,10,11)/t9-/m1/s1

> <OPENEYE_INCHIKEY>
LMUYJJAKMZKBHS-SECBINFHSA-N

> <FORMULA>
C9H15NO3S

$$$$
