4JQ
  -OEChem-02242320003D

 19 20  0     0  0  0  0  0  0999 V2000
    2.1490    1.2490    0.0010 C   0  0  0  0  0  0  0  0  0  0  0  0
    0.8250    1.6300    0.0010 C   0  0  0  0  0  0  0  0  0  0  0  0
   -0.1770    0.6670    0.0010 C   0  0  0  0  0  0  0  0  0  0  0  0
   -2.4600    0.1130   -0.0010 C   0  0  0  0  0  0  0  0  0  0  0  0
   -2.1830   -1.2710   -0.0010 C   0  0  0  0  0  0  0  0  0  0  0  0
   -0.8960   -1.7010    0.0010 C   0  0  0  0  0  0  0  0  0  0  0  0
    0.1710   -0.6950    0.0010 C   0  0  0  0  0  0  0  0  0  0  0  0
    1.5170   -1.0740    0.0020 C   0  0  0  0  0  0  0  0  0  0  0  0
   -3.6190    0.4860   -0.0020 O   0  0  0  0  0  0  0  0  0  0  0  0
   -1.4790    1.0280   -0.0000 O   0  0  0  0  0  0  0  0  0  0  0  0
    2.4990   -0.1000    0.0020 C   0  0  0  0  0  0  0  0  0  0  0  0
    3.8470   -0.4710   -0.0040 N   0  0  0  0  0  0  0  0  0  0  0  0
    2.9220    2.0020   -0.0030 H   0  0  0  0  0  0  0  0  0  0  0  0
    0.5650    2.6780    0.0010 H   0  0  0  0  0  0  0  0  0  0  0  0
   -2.9930   -1.9860   -0.0020 H   0  0  0  0  0  0  0  0  0  0  0  0
   -0.6630   -2.7560    0.0010 H   0  0  0  0  0  0  0  0  0  0  0  0
    1.7870   -2.1190    0.0020 H   0  0  0  0  0  0  0  0  0  0  0  0
    4.5370    0.2110   -0.0070 H   0  0  0  0  0  0  0  0  0  0  0  0
    4.0930   -1.4090   -0.0030 H   0  0  0  0  0  0  0  0  0  0  0  0
  1  2  2  0  0  0  0
  2  3  1  0  0  0  0
  3 10  1  0  0  0  0
  4 10  1  0  0  0  0
  4  9  2  0  0  0  0
  1 11  1  0  0  0  0
  3  7  2  0  0  0  0
  4  5  1  0  0  0  0
 11 12  1  0  0  0  0
  8 11  2  0  0  0  0
  7  8  1  0  0  0  0
  6  7  1  0  0  0  0
  5  6  2  0  0  0  0
  1 13  1  0  0  0  0
  2 14  1  0  0  0  0
  5 15  1  0  0  0  0
  6 16  1  0  0  0  0
  8 17  1  0  0  0  0
 12 18  1  0  0  0  0
 12 19  1  0  0  0  0
M  END
> <OPENEYE_ISO_SMILES>
c1cc(=O)oc2c1cc(cc2)N

> <OPENEYE_INCHI>
InChI=1S/C9H7NO2/c10-7-2-3-8-6(5-7)1-4-9(11)12-8/h1-5H,10H2

> <OPENEYE_INCHIKEY>
ZOJAINJCZSVZGW-UHFFFAOYSA-N

> <FORMULA>
C9H7NO2

$$$$
