@<TRIPOS>MOLECULE
/home/pku/3cl/gett_pdb/5RSB/5RSB_mol2/ligand/5RSB_W4S.pdb
 38 29 0 0 0
SMALL
GASTEIGER

@<TRIPOS>ATOM
      1  C01      -44.3800  -29.1990    2.3230 C.3   201  W4S201     -0.0681
      2  C01      -52.4450  -29.5360    6.8190 C.3   201  W4S201      0.0699
      3  C03      -46.8430  -29.0620    2.7540 C.3   201  W4S201      0.0626
      4  C03      -50.2160  -29.4470    7.7270 C.3   201  W4S201      0.1755
      5  C04      -47.6060  -29.0210    3.9310 C.1   201  W4S201      0.0000
      6  C04      -48.9070  -29.2940    7.2430 C.3   201  W4S201     -0.0309
      7  C05      -46.6670  -29.0780    4.9930 C.3   201  W4S201      0.0000
      8  C05      -48.9830  -29.1930    5.8310 C.3   201  W4S201      0.1298
      9  C06      -46.6760  -29.0660    6.4190 C.3   201  W4S201      0.0877
     10  C06      -48.0480  -29.0620    4.7560 C.1   201  W4S201      0.0000
     11  C09      -44.3730  -29.1710    6.4480 C.2   201  W4S201      0.1232
     12  C09      -49.8390  -29.0780    3.3380 C.2   201  W4S201      0.2235
     13  C11      -45.4280  -29.1430    4.4070 C.3   201  W4S201      0.0626
     14  C11      -50.3210  -29.3320    5.5580 C.2   201  W4S201      0.3006
     15  N02      -45.5570  -29.1370    3.0900 N.3   201  W4S201     -0.2271
     16  N02      -51.0150  -29.4460    6.6830 N.pl3 201  W4S201     -0.2154
     17  N07      -47.9470  -29.0030    7.1540 N.3   201  W4S201     -0.2731
     18  N07      -46.6330  -29.0410    5.0090 N.3   201  W4S201      0.0000
     19  N08      -45.5240  -29.1240    7.1070 N.pl3 201  W4S201     -0.2304
     20  N08      -48.5140  -29.0110    3.5390 N.2   201  W4S201     -0.2662
     21  N10      -44.2790  -29.1770    5.1440 N.2   201  W4S201     -0.1396
     22  N10      -50.7470  -29.2050    4.2900 N.2   201  W4S201     -0.0340
     23 H011      -44.6060  -29.1570    1.3810 H     201  W4S201      0.0227
     24 H011      -52.6780  -29.5750    7.7600 H     201  W4S201      0.0689
     25 H012      -43.9170  -30.0310    2.5080 H     201  W4S201      0.0227
     26 H012      -52.7620  -30.3370    6.3740 H     201  W4S201      0.0689
     27 H013      -43.8050  -28.4520    2.5520 H     201  W4S201      0.0227
     28 H013      -52.8580  -28.7570    6.4150 H     201  W4S201      0.0689
     29 H031      -47.1790  -29.0570    1.8870 H     201  W4S201      0.0510
     30 H031      -50.4690  -29.5370    8.6170 H     201  W4S201      0.0849
     31 H041      -48.5330  -28.9830    4.0000 H     201  W4S201      0.1899
     32 H041      -48.1280  -29.3130    7.7510 H     201  W4S201      0.1366
     33 H091      -43.5870  -29.2150    6.9430 H     201  W4S201      0.1033
     34 H091      -50.1420  -29.0400    2.4590 H     201  W4S201      0.1349
     35 H071      -48.6840  -29.1990    6.7560 H     201  W4S201      0.0309
     36 H071      -46.3410  -28.9940    5.8170 H     201  W4S201      0.0558
     37 H072      -47.9540  -28.7700    7.9820 H     201  W4S201      0.1366
     38 H072      -46.0780  -29.0760    4.3530 H     201  W4S201      0.0510
@<TRIPOS>BOND
     1    23     1    1
     2    29     3    1
     3     1    25    1
     4     1    27    1
     5    34    12    1
     6     3    15    1
     7    15    13    1
     8    12    20    2
     9    12    22    1
    10    20    31    1
    11     5    10    3
    12    22    14    2
    13    38    13    1
    14    21    11    2
    15    14     8    1
    16    14    16    1
    17    36     9    1
    18    26     2    1
    19    28     2    1
    20     9    19    1
    21    11    33    1
    22    11    19    1
    23    16     2    1
    24    16     4    1
    25    35     6    1
    26     2    24    1
    27    17    32    1
    28    17    37    1
    29     4    30    1
