MYI
  -OEChem-02242320033D

 26 27  0     0  0  0  0  0  0999 V2000
    4.3350    1.6220   -0.1040 C   0  0  0  0  0  0  0  0  0  0  0  0
   -2.5550    0.7540   -1.3010 O   0  0  0  0  0  0  0  0  0  0  0  0
   -3.9240    1.9240   -0.0210 O   0  0  0  0  0  0  0  0  0  0  0  0
    2.7500   -0.5590   -0.2980 C   0  0  0  0  0  0  0  0  0  0  0  0
    1.9830   -1.6970   -0.4110 C   0  0  0  0  0  0  0  0  0  0  0  0
   -1.5600   -2.0290    0.2600 C   0  0  0  0  0  0  0  0  0  0  0  0
    0.8340    0.7070    0.4170 C   0  0  0  0  0  0  0  0  0  0  0  0
   -2.4200    0.2510    0.9970 C   0  0  0  0  0  0  0  0  0  0  0  0
   -0.3780   -2.5980   -0.1290 N   0  0  0  0  0  0  0  0  0  0  0  0
    2.9510    1.7580    0.2220 O   0  0  0  0  0  0  0  0  0  0  0  0
   -2.9710    0.9940   -0.1930 C   0  0  0  0  0  0  0  0  0  0  0  0
    2.1790    0.6430    0.1150 C   0  0  0  0  0  0  0  0  0  0  0  0
   -1.3720   -0.7280    0.5360 C   0  0  0  0  0  0  0  0  0  0  0  0
    0.6250   -1.6530   -0.1130 C   0  0  0  0  0  0  0  0  0  0  0  0
    0.0460   -0.4420    0.3050 C   0  0  0  0  0  0  0  0  0  0  0  0
    4.8340    2.5830    0.0230 H   0  0  0  0  0  0  0  0  0  0  0  0
    4.7930    0.8840    0.5540 H   0  0  0  0  0  0  0  0  0  0  0  0
    4.4340    1.2960   -1.1400 H   0  0  0  0  0  0  0  0  0  0  0  0
   -4.2460    2.3740   -0.8130 H   0  0  0  0  0  0  0  0  0  0  0  0
    3.8050   -0.5990   -0.5270 H   0  0  0  0  0  0  0  0  0  0  0  0
    2.4360   -2.6230   -0.7330 H   0  0  0  0  0  0  0  0  0  0  0  0
   -2.5040   -2.5480    0.3340 H   0  0  0  0  0  0  0  0  0  0  0  0
    0.3920    1.6390    0.7380 H   0  0  0  0  0  0  0  0  0  0  0  0
   -1.9740    0.9600    1.6940 H   0  0  0  0  0  0  0  0  0  0  0  0
   -3.2270   -0.2880    1.4940 H   0  0  0  0  0  0  0  0  0  0  0  0
   -0.2640   -3.5290   -0.3790 H   0  0  0  0  0  0  0  0  0  0  0  0
  1 10  1  0  0  0  0
  2 11  2  0  0  0  0
  3 11  1  0  0  0  0
  4  5  2  0  0  0  0
  4 12  1  0  0  0  0
  5 14  1  0  0  0  0
  6  9  1  0  0  0  0
  6 13  2  0  0  0  0
  7 12  2  0  0  0  0
  7 15  1  0  0  0  0
  8 11  1  0  0  0  0
  8 13  1  0  0  0  0
  9 14  1  0  0  0  0
 10 12  1  0  0  0  0
 13 15  1  0  0  0  0
 14 15  2  0  0  0  0
  1 16  1  0  0  0  0
  1 17  1  0  0  0  0
  1 18  1  0  0  0  0
  3 19  1  0  0  0  0
  4 20  1  0  0  0  0
  5 21  1  0  0  0  0
  6 22  1  0  0  0  0
  7 23  1  0  0  0  0
  8 24  1  0  0  0  0
  8 25  1  0  0  0  0
  9 26  1  0  0  0  0
M  END
> <OPENEYE_ISO_SMILES>
COc1ccc2c(c1)c(c[nH]2)CC(=O)O

> <OPENEYE_INCHI>
InChI=1S/C11H11NO3/c1-15-8-2-3-10-9(5-8)7(6-12-10)4-11(13)14/h2-3,5-6,12H,4H2,1H3,(H,13,14)

> <OPENEYE_INCHIKEY>
COCNDHOPIHDTHK-UHFFFAOYSA-N

> <FORMULA>
C11H11NO3

$$$$
