@<TRIPOS>MOLECULE
/home/pku/3cl/gett_pdb/5RUE/5RUE_mol2/ligand/5RUE_BHA.pdb
 17 17 0 0 0
SMALL
GASTEIGER

@<TRIPOS>ATOM
      1  C1'      -47.6260  -29.0500    2.7930 C.2   201  BHA201      0.0752
      2  O1'      -48.3120  -28.9900    1.7740 O.co2 201  BHA201     -0.5445
      3  O2'      -46.3680  -29.1040    2.6730 O.co2 201  BHA201     -0.5445
      4  C1       -48.3560  -29.0880    4.1390 C.ar  201  BHA201      0.0388
      5  C2       -49.7390  -29.0180    4.1490 C.ar  201  BHA201      0.1274
      6  C3       -50.4510  -29.0730    5.3330 C.ar  201  BHA201      0.0011
      7  C4       -49.7820  -29.2230    6.5510 C.ar  201  BHA201      0.0281
      8  C5       -48.3790  -29.2960    6.5180 C.ar  201  BHA201     -0.0402
      9  C6       -47.6900  -29.2310    5.3080 C.ar  201  BHA201     -0.0477
     10  O2       -50.4280  -28.8830    2.9660 O.3   201  BHA201     -0.5061
     11  N4       -50.5360  -29.2690    7.7940 N.pl3 201  BHA201     -0.3579
     12  H3       -51.3790  -29.0180    5.3180 H     201  BHA201      0.0673
     13  H5       -47.9050  -29.3870    7.3130 H     201  BHA201      0.0636
     14  H6       -46.7620  -29.2920    5.3040 H     201  BHA201      0.0626
     15  HO2      -50.7470  -28.0970    2.9120 H     201  BHA201      0.2922
     16 HN41      -51.3520  -29.5420    7.7920 H     201  BHA201      0.1423
     17 HN42      -50.1660  -29.0230    8.5310 H     201  BHA201      0.1423
@<TRIPOS>UNITY_ATOM_ATTR
3 1
charge -1
@<TRIPOS>BOND
     1     2     1   ar
     2     3     1   ar
     3     1     4    1
     4    15    10    1
     5    10     5    1
     6     4     5   ar
     7     4     9   ar
     8     5     6   ar
     9    14     9    1
    10     9     8   ar
    11    12     6    1
    12     6     7   ar
    13     8     7   ar
    14     8    13    1
    15     7    11    1
    16    16    11    1
    17    11    17    1
