T3G
  -OEChem-02242320043D

 34 35  0     0  0  0  0  0  0999 V2000
   -3.3280   -0.0490    0.0030 N   0  0  0  0  0  0  0  0  0  0  0  0
    2.6410    1.2270   -0.3790 C   0  0  0  0  0  0  0  0  0  0  0  0
    2.1290    0.0100    0.0340 C   0  0  0  0  0  0  0  0  0  0  0  0
   -1.2300   -1.2870   -0.1380 C   0  0  0  0  0  0  0  0  0  0  0  0
   -2.6800   -1.3190    0.3600 C   0  0  0  0  0  0  0  0  0  0  0  0
   -2.7080    1.2100    0.4410 C   0  0  0  0  0  0  0  0  0  0  0  0
   -4.4660   -0.0380   -0.7180 C   0  0  0  0  0  0  0  0  0  0  0  0
   -0.6100   -0.0290    0.3000 N   0  0  0  0  0  0  0  0  0  0  0  0
    2.6670   -1.1680   -0.4550 C   0  0  0  0  0  0  0  0  0  0  0  0
    0.8560   -1.3110    1.8150 O   0  0  0  0  0  0  0  0  0  0  0  0
    3.7180   -1.1270   -1.3560 C   0  0  0  0  0  0  0  0  0  0  0  0
   -5.1190    1.2720   -1.0770 C   0  0  0  0  0  0  0  0  0  0  0  0
    4.2290    0.0900   -1.7670 C   0  0  0  0  0  0  0  0  0  0  0  0
    3.6920    1.2660   -1.2800 C   0  0  0  0  0  0  0  0  0  0  0  0
   -1.2580    1.2420   -0.0580 C   0  0  0  0  0  0  0  0  0  0  0  0
    2.1680   -2.3570   -0.0530 F   0  0  0  0  0  0  0  0  0  0  0  0
    2.1120    2.3780    0.0930 F   0  0  0  0  0  0  0  0  0  0  0  0
    0.8280    1.1870    1.8940 O   0  0  0  0  0  0  0  0  0  0  0  0
   -4.9650   -1.0830   -1.0790 O   0  0  0  0  0  0  0  0  0  0  0  0
    0.7920   -0.0410    1.1810 S   0  0  0  0  0  0  0  0  0  0  0  0
   -0.6810   -2.1300    0.2800 H   0  0  0  0  0  0  0  0  0  0  0  0
   -1.2130   -1.3440   -1.2270 H   0  0  0  0  0  0  0  0  0  0  0  0
   -2.6920   -1.4440    1.4430 H   0  0  0  0  0  0  0  0  0  0  0  0
   -3.2110   -2.1450   -0.1120 H   0  0  0  0  0  0  0  0  0  0  0  0
   -3.2570    2.0530    0.0220 H   0  0  0  0  0  0  0  0  0  0  0  0
   -2.7220    1.2650    1.5300 H   0  0  0  0  0  0  0  0  0  0  0  0
    4.1390   -2.0460   -1.7370 H   0  0  0  0  0  0  0  0  0  0  0  0
   -4.4270    1.8730   -1.6680 H   0  0  0  0  0  0  0  0  0  0  0  0
   -6.0210    1.0810   -1.6570 H   0  0  0  0  0  0  0  0  0  0  0  0
   -5.3790    1.8100   -0.1660 H   0  0  0  0  0  0  0  0  0  0  0  0
    5.0490    0.1210   -2.4690 H   0  0  0  0  0  0  0  0  0  0  0  0
    4.0890    2.2170   -1.6050 H   0  0  0  0  0  0  0  0  0  0  0  0
   -1.2460    1.3670   -1.1400 H   0  0  0  0  0  0  0  0  0  0  0  0
   -0.7270    2.0680    0.4140 H   0  0  0  0  0  0  0  0  0  0  0  0
  9 16  1  0  0  0  0
  9 11  2  0  0  0  0
 11 13  1  0  0  0  0
 13 14  2  0  0  0  0
  2 14  1  0  0  0  0
  2 17  1  0  0  0  0
  2  3  2  0  0  0  0
  3  9  1  0  0  0  0
  3 20  1  0  0  0  0
 10 20  2  0  0  0  0
 18 20  2  0  0  0  0
  8 20  1  0  0  0  0
  4  8  1  0  0  0  0
  4  5  1  0  0  0  0
  1  5  1  0  0  0  0
  1  6  1  0  0  0  0
  6 15  1  0  0  0  0
  8 15  1  0  0  0  0
  1  7  1  0  0  0  0
  7 19  2  0  0  0  0
  7 12  1  0  0  0  0
  4 21  1  0  0  0  0
  4 22  1  0  0  0  0
  5 23  1  0  0  0  0
  5 24  1  0  0  0  0
  6 25  1  0  0  0  0
  6 26  1  0  0  0  0
 11 27  1  0  0  0  0
 12 28  1  0  0  0  0
 12 29  1  0  0  0  0
 12 30  1  0  0  0  0
 13 31  1  0  0  0  0
 14 32  1  0  0  0  0
 15 33  1  0  0  0  0
 15 34  1  0  0  0  0
M  END
> <OPENEYE_ISO_SMILES>
CC(=O)N1CCN(CC1)S(=O)(=O)c2c(cccc2F)F

> <OPENEYE_INCHI>
InChI=1S/C12H14F2N2O3S/c1-9(17)15-5-7-16(8-6-15)20(18,19)12-10(13)3-2-4-11(12)14/h2-4H,5-8H2,1H3

> <OPENEYE_INCHIKEY>
IQKBRWMUAKOXSG-UHFFFAOYSA-N

> <FORMULA>
C12H14F2N2O3S

$$$$
