Y6G
  -OEChem-02242320043D

 48 52  0     0  0  0  0  0  0999 V2000
    1.0290    1.0830    0.2940 O   0  0  0  0  0  0  0  0  0  0  0  0
    1.1060    0.0150   -0.2760 C   0  0  0  0  0  0  0  0  0  0  0  0
    2.4400   -0.6720   -0.4120 C   0  0  0  0  0  0  0  0  0  0  0  0
    3.4600    0.0950    0.3090 N   0  0  0  0  0  0  0  0  0  0  0  0
    4.2360    1.1110   -0.1970 C   0  0  0  0  0  0  0  0  0  0  0  0
    4.3330    1.7230   -1.4420 C   0  0  0  0  0  0  0  0  0  0  0  0
    5.2380    2.7440   -1.6300 C   0  0  0  0  0  0  0  0  0  0  0  0
    6.0510    3.1650   -0.5860 C   0  0  0  0  0  0  0  0  0  0  0  0
    5.9710    2.5770    0.6420 C   0  0  0  0  0  0  0  0  0  0  0  0
    5.0590    1.5360    0.8600 C   0  0  0  0  0  0  0  0  0  0  0  0
    4.7610    0.7840    1.9380 N   0  0  0  0  0  0  0  0  0  0  0  0
    3.8320   -0.0590    1.6520 N   0  0  0  0  0  0  0  0  0  0  0  0
   -0.0020   -0.5590   -0.7840 N   0  0  0  0  0  0  0  0  0  0  0  0
    0.1070   -1.7810   -1.5840 C   0  0  0  0  0  0  0  0  0  0  0  0
   -0.1540   -2.9800   -0.7080 C   0  0  0  0  0  0  0  0  0  0  0  0
    0.8040   -3.5620    0.0150 C   0  0  0  0  0  0  0  0  0  0  0  0
    0.1280   -4.9210    0.9040 S   0  0  0  0  0  0  0  0  0  0  0  0
   -1.4650   -4.6130    0.2240 C   0  0  0  0  0  0  0  0  0  0  0  0
   -1.4070   -3.5560   -0.5880 C   0  0  0  0  0  0  0  0  0  0  0  0
   -1.2580    0.0120   -0.5470 C   0  0  0  0  0  0  0  0  0  0  0  0
   -2.3790   -0.4820   -1.2010 C   0  0  0  0  0  0  0  0  0  0  0  0
   -3.6170    0.0790   -0.9700 C   0  0  0  0  0  0  0  0  0  0  0  0
   -3.7430    1.1440   -0.0790 C   0  0  0  0  0  0  0  0  0  0  0  0
   -5.0740    1.7490    0.1730 C   0  0  0  0  0  0  0  0  0  0  0  0
   -5.3380    2.7860    1.0110 C   0  0  0  0  0  0  0  0  0  0  0  0
   -6.6830    3.0170    0.9370 N   0  0  0  0  0  0  0  0  0  0  0  0
   -7.2000    2.1250    0.0640 C   0  0  0  0  0  0  0  0  0  0  0  0
   -6.2380    1.3740   -0.3950 N   0  0  0  0  0  0  0  0  0  0  0  0
   -2.6160    1.6380    0.5760 C   0  0  0  0  0  0  0  0  0  0  0  0
   -1.3810    1.0700    0.3460 C   0  0  0  0  0  0  0  0  0  0  0  0
    2.3760   -1.6760    0.0080 H   0  0  0  0  0  0  0  0  0  0  0  0
    2.7110   -0.7360   -1.4660 H   0  0  0  0  0  0  0  0  0  0  0  0
    3.7030    1.3990   -2.2570 H   0  0  0  0  0  0  0  0  0  0  0  0
    5.3150    3.2210   -2.5960 H   0  0  0  0  0  0  0  0  0  0  0  0
    6.7560    3.9670   -0.7490 H   0  0  0  0  0  0  0  0  0  0  0  0
    6.6100    2.9130    1.4450 H   0  0  0  0  0  0  0  0  0  0  0  0
   -0.6260   -1.7550   -2.3910 H   0  0  0  0  0  0  0  0  0  0  0  0
    1.1090   -1.8510   -2.0060 H   0  0  0  0  0  0  0  0  0  0  0  0
    1.8360   -3.2480    0.0490 H   0  0  0  0  0  0  0  0  0  0  0  0
   -2.3540   -5.1880    0.4350 H   0  0  0  0  0  0  0  0  0  0  0  0
   -2.2720   -3.1800   -1.1150 H   0  0  0  0  0  0  0  0  0  0  0  0
   -2.2820   -1.3070   -1.8910 H   0  0  0  0  0  0  0  0  0  0  0  0
   -4.4890   -0.3050   -1.4790 H   0  0  0  0  0  0  0  0  0  0  0  0
   -4.6230    3.3220    1.6180 H   0  0  0  0  0  0  0  0  0  0  0  0
   -7.1760    3.6970    1.4230 H   0  0  0  0  0  0  0  0  0  0  0  0
   -8.2410    2.0490   -0.2120 H   0  0  0  0  0  0  0  0  0  0  0  0
   -2.7110    2.4630    1.2670 H   0  0  0  0  0  0  0  0  0  0  0  0
   -0.5080    1.4500    0.8560 H   0  0  0  0  0  0  0  0  0  0  0  0
  7  8  2  0  0  0  0
  8  9  1  0  0  0  0
  6  7  1  0  0  0  0
  5  6  2  0  0  0  0
  9 10  2  0  0  0  0
 27 28  2  0  0  0  0
 24 28  1  0  0  0  0
  5 10  1  0  0  0  0
 10 11  1  0  0  0  0
  4  5  1  0  0  0  0
 26 27  1  0  0  0  0
 21 22  2  0  0  0  0
 22 23  1  0  0  0  0
 20 21  1  0  0  0  0
 11 12  2  0  0  0  0
 23 24  1  0  0  0  0
 24 25  2  0  0  0  0
  3  4  1  0  0  0  0
  4 12  1  0  0  0  0
 25 26  1  0  0  0  0
 23 29  2  0  0  0  0
  2  3  1  0  0  0  0
 13 20  1  0  0  0  0
 20 30  2  0  0  0  0
  2 13  1  0  0  0  0
  1  2  2  0  0  0  0
 13 14  1  0  0  0  0
 29 30  1  0  0  0  0
 14 15  1  0  0  0  0
 15 19  1  0  0  0  0
 15 16  2  0  0  0  0
 18 19  2  0  0  0  0
 16 17  1  0  0  0  0
 17 18  1  0  0  0  0
  3 31  1  0  0  0  0
  3 32  1  0  0  0  0
  6 33  1  0  0  0  0
  7 34  1  0  0  0  0
  8 35  1  0  0  0  0
  9 36  1  0  0  0  0
 14 37  1  0  0  0  0
 14 38  1  0  0  0  0
 16 39  1  0  0  0  0
 18 40  1  0  0  0  0
 19 41  1  0  0  0  0
 21 42  1  0  0  0  0
 22 43  1  0  0  0  0
 25 44  1  0  0  0  0
 26 45  1  0  0  0  0
 27 46  1  0  0  0  0
 29 47  1  0  0  0  0
 30 48  1  0  0  0  0
M  END
> <OPENEYE_ISO_SMILES>
c1ccc2c(c1)nnn2CC(=O)N(Cc3ccsc3)c4ccc(cc4)c5c[nH]cn5

> <OPENEYE_INCHI>
InChI=1S/C22H18N6OS/c29-22(13-28-21-4-2-1-3-19(21)25-26-28)27(12-16-9-10-30-14-16)18-7-5-17(6-8-18)20-11-23-15-24-20/h1-11,14-15H,12-13H2,(H,23,24)

> <OPENEYE_INCHIKEY>
XZJQABWECIWHRU-UHFFFAOYSA-N

> <FORMULA>
C22H18N6OS

$$$$
