@<TRIPOS>MOLECULE
/home/pku/3cl/gett_pdb/5SRZ/5SRZ_mol2/ligand/5SRZ_RIZ.pdb
 40 43 0 0 0
SMALL
GASTEIGER

@<TRIPOS>ATOM
      1  C16      -50.1060  -28.9600    3.5790 C.ar  201  RIZ201     -0.0257
      2  C17      -48.7140  -29.0170    3.5220 C.ar  201  RIZ201     -0.0491
      3  C15      -50.7560  -28.9880    4.8070 C.ar  201  RIZ201      0.1254
      4  C14      -50.0190  -29.0610    5.9760 C.ar  201  RIZ201     -0.0025
      5  C13      -48.6210  -29.1160    5.9170 C.ar  201  RIZ201      0.0515
      6  C12      -47.9630  -29.0990    4.7010 C.ar  201  RIZ201      0.0124
      7  C11      -46.5690  -29.1710    5.0220 C.ar  201  RIZ201      0.0661
      8  C10      -45.3460  -29.2190    4.3180 C.ar  201  RIZ201      0.1320
      9  C20      -46.4940  -29.2230    6.4000 C.ar  201  RIZ201      0.1442
     10  C02      -44.9230  -32.3810    2.2100 C.2   201  RIZ201      0.0466
     11  C03      -44.8190  -31.1080    1.3520 C.3   201  RIZ201      0.0169
     12  C04      -43.3940  -30.5470    1.3250 C.3   201  RIZ201     -0.0434
     13  C05      -43.4010  -29.1540    0.6830 C.3   201  RIZ201     -0.0524
     14  C06      -44.7020  -28.8720   -0.0610 C.3   201  RIZ201     -0.0513
     15  C07      -46.0350  -29.1440    0.6580 C.3   201  RIZ201     -0.0339
     16  C08      -45.7880  -30.0350    1.8640 C.3   201  RIZ201      0.0299
     17  C22      -44.1860  -29.3190    6.3090 C.ar  201  RIZ201      0.1204
     18  F18      -52.1170  -28.9330    4.8600 F     201  RIZ201     -0.2054
     19  N09      -45.2480  -29.1270    2.8750 N.pl3 201  RIZ201     -0.3250
     20  N19      -47.7280  -29.1910    6.9070 N.ar  201  RIZ201     -0.3389
     21  N21      -45.3020  -29.2990    6.9970 N.ar  201  RIZ201     -0.2178
     22  N23      -44.2060  -29.2700    4.9910 N.ar  201  RIZ201     -0.2202
     23  O01      -44.0850  -32.6090    3.1210 O.co2 201  RIZ201     -0.5495
     24  O24      -45.8570  -33.1980    1.9900 O.co2 201  RIZ201     -0.5495
     25 H161      -50.6890  -28.9190    2.6640 H     201  RIZ201      0.0646
     26 H171      -48.2170  -29.0170    2.5590 H     201  RIZ201      0.0625
     27 H141      -50.5160  -29.0790    6.9370 H     201  RIZ201      0.0667
     28 H031      -45.0960  -31.3440    0.3170 H     201  RIZ201      0.0378
     29 H042      -43.0090  -30.4770    2.3330 H     201  RIZ201      0.0272
     30 H041      -42.7540  -31.2060    0.7360 H     201  RIZ201      0.0272
     31 H052      -43.2800  -28.4070    1.4360 H     201  RIZ201      0.0265
     32 H051      -42.5880  -29.0940   -0.0190 H     201  RIZ201      0.0265
     33 H061      -44.7060  -27.9230   -0.6340 H     201  RIZ201      0.0266
     34 H062      -44.6090  -29.7020   -0.7180 H     201  RIZ201      0.0266
     35 H071      -46.7170  -29.6600   -0.0140 H     201  RIZ201      0.0283
     36 H072      -46.4710  -28.2060    0.9690 H     201  RIZ201      0.0283
     37 H081      -46.7040  -30.4970    2.1980 H     201  RIZ201      0.0504
     38 H221      -43.2440  -29.3770    6.8340 H     201  RIZ201      0.1048
     39 H091      -44.7680  -28.3230    2.5440 H     201  RIZ201      0.1478
     40 H191      -47.9510  -29.2190    7.8810 H     201  RIZ201      0.1673
@<TRIPOS>UNITY_ATOM_ATTR
23 1
charge -1
@<TRIPOS>BOND
     1    34    14    1
     2    33    14    1
     3    14    15    1
     4    14    13    1
     5    32    13    1
     6    35    15    1
     7    28    11    1
     8    15    36    1
     9    15    16    1
    10    13    12    1
    11    13    31    1
    12    30    12    1
    13    12    11    1
    14    12    29    1
    15    11    16    1
    16    11    10    1
    17    16    37    1
    18    16    19    1
    19    24    10   ar
    20    10    23   ar
    21    39    19    1
    22    26     2    1
    23    25     1    1
    24    19     8    1
    25     2     1   ar
    26     2     6   ar
    27     1     3   ar
    28     8    22   ar
    29     8     7   ar
    30     6     7   ar
    31     6     5   ar
    32     3    18    1
    33     3     4   ar
    34    22    17   ar
    35     7     9   ar
    36     5     4   ar
    37     5    20   ar
    38     4    27    1
    39    17    38    1
    40    17    21   ar
    41     9    20   ar
    42     9    21   ar
    43    20    40    1
