@<TRIPOS>MOLECULE
/home/pku/3cl/gett_pdb/4XBD/4XBD_mol2/ligand/4XBD_M40.pdb
 26 27 0 0 0
SMALL
GASTEIGER

@<TRIPOS>ATOM
      1  O01      -21.1340   18.8300  -34.3770 O.2   201  M40201     -0.2245
      2  C02      -21.2420   20.0530  -34.5230 C.2   201  M40201      0.4216
      3  O03      -22.2000   20.5890  -35.3660 O.3   201  M40201     -0.4294
      4  C04      -23.3030   19.8570  -35.8060 C.3   201  M40201      0.2574
      5  N11      -20.3150   21.0540  -33.9690 N.am  201  M40201     -0.1611
      6  C12      -19.2640   20.5850  -33.1320 C.3   201  M40201      0.1762
      7  C13      -18.3930   21.7590  -32.7440 C.3   201  M40201      0.0312
      8  C14      -17.6850   22.5490  -33.8630 C.3   201  M40201      0.0022
      9  C15      -16.9990   23.7050  -33.1930 C.3   201  M40201      0.0001
     10  C16      -15.9970   24.4040  -34.0770 C.3   201  M40201      0.0000
     11  C17      -15.0620   23.4460  -34.7180 C.3   201  M40201      0.0000
     12  C18      -15.7750   22.3260  -35.4500 C.3   201  M40201      0.0000
     13  C19      -16.7480   21.6030  -34.5870 C.3   201  M40201      0.0001
     14  C20      -19.7660   19.9680  -31.8930 C.2   201  M40201      0.2649
     15  N21      -19.0660   18.8160  -31.4130 N.am  201  M40201     -0.1525
     16  C22      -19.4260   18.1400  -30.1910 C.3   201  M40201      0.3511
     17  C23      -20.0140   16.8160  -30.5300 C.3   201  M40201      0.0915
     18  C24      -21.3070   16.8440  -31.4070 C.3   201  M40201      0.0865
     19  C25      -22.4280   17.5750  -30.7130 C.3   201  M40201      0.0328
     20  C26      -23.6900   16.8860  -31.2420 C.3   201  M40201      0.1156
     21  N27      -23.2600   15.5130  -31.5860 N.am  201  M40201     -0.2054
     22  C28      -21.8230   15.4860  -31.6690 C.2   201  M40201      0.2412
     23  O29      -21.2180   14.4810  -31.9340 O.2   201  M40201     -0.2734
     24  O31      -17.8110   19.2100  -28.7590 O.3   201  M40201      0.0622
     25  O32      -20.7190   20.4310  -31.2800 O.2   201  M40201     -0.2714
     26  C30      -18.2050   17.9810  -29.3030 C.cat 201  M40201      0.5832
@<TRIPOS>UNITY_ATOM_ATTR
26 1
charge 1
@<TRIPOS>BOND
     1     4     3    1
     2    12    11    1
     3    12    13    1
     4     3     2    1
     5    11    10    1
     6    13     8    1
     7     2     1    2
     8     2     5   am
     9    10     9    1
    10     5     6    1
    11     8     9    1
    12     8     7    1
    13     6     7    1
    14     6    14    1
    15    23    22    2
    16    14    15   am
    17    14    25    2
    18    22    21   am
    19    22    18    1
    20    21    20    1
    21    15    16    1
    22    18    19    1
    23    18    17    1
    24    20    19    1
    25    17    16    1
    26    16    26    1
    27    26    24    1
