WWN
  -OEChem-02242320043D

 50 52  0     1  0  0  0  0  0999 V2000
    3.2190   -0.3080    0.0220 C   0  0  0  0  0  0  0  0  0  0  0  0
    3.6050    1.0300    0.1300 C   0  0  0  0  0  0  0  0  0  0  0  0
    1.5120   -2.0900    0.0950 C   0  0  0  0  0  0  0  0  0  0  0  0
   -1.8890   -3.8470    0.4890 C   0  0  0  0  0  0  0  0  0  0  0  0
   -0.4180   -3.6780    0.1070 C   0  0  0  0  0  0  0  0  0  0  0  0
    0.0110   -2.2300    0.3580 C   0  0  2  0  0  0  0  0  0  0  0  0
    3.8910    3.1950    0.3700 C   0  0  0  0  0  0  0  0  0  0  0  0
   -1.9540   -0.9000   -0.1950 C   0  0  0  0  0  0  0  0  0  0  0  0
   -2.7140    0.0160   -1.1200 C   0  0  0  0  0  0  0  0  0  0  0  0
   -4.0670    0.3630   -0.4950 C   0  0  0  0  0  0  0  0  0  0  0  0
   -4.8890    1.1900   -1.4850 C   0  0  0  0  0  0  0  0  0  0  0  0
   -6.2420    1.5370   -0.8610 C   0  0  0  0  0  0  0  0  0  0  0  0
   -6.0200    2.3460    0.4190 C   0  0  0  0  0  0  0  0  0  0  0  0
   -5.1980    1.5190    1.4100 C   0  0  0  0  0  0  0  0  0  0  0  0
   -3.8450    1.1720    0.7850 C   0  0  0  0  0  0  0  0  0  0  0  0
    4.9530    1.3600   -0.0830 C   0  0  0  0  0  0  0  0  0  0  0  0
    5.4050   -0.8640   -0.4730 C   0  0  0  0  0  0  0  0  0  0  0  0
   -0.7280   -1.3400   -0.5400 N   0  0  0  0  0  0  0  0  0  0  0  0
    1.9000   -0.6830    0.2180 N   0  0  0  0  0  0  0  0  0  0  0  0
    2.9610    2.2150    0.4150 N   0  0  0  0  0  0  0  0  0  0  0  0
    5.0580    2.6930    0.0780 N   0  0  0  0  0  0  0  0  0  0  0  0
    5.8140    0.3820   -0.3820 N   0  0  0  0  0  0  0  0  0  0  0  0
    4.1460   -1.2140   -0.2790 N   0  0  0  0  0  0  0  0  0  0  0  0
   -2.4460   -1.2420    0.8590 O   0  0  0  0  0  0  0  0  0  0  0  0
    2.0650   -2.6850    0.8220 H   0  0  0  0  0  0  0  0  0  0  0  0
    1.7390   -2.4430   -0.9110 H   0  0  0  0  0  0  0  0  0  0  0  0
   -2.0210   -3.6070    1.5450 H   0  0  0  0  0  0  0  0  0  0  0  0
   -2.5010   -3.1770   -0.1150 H   0  0  0  0  0  0  0  0  0  0  0  0
   -2.1950   -4.8780    0.3110 H   0  0  0  0  0  0  0  0  0  0  0  0
    0.1940   -4.3470    0.7120 H   0  0  0  0  0  0  0  0  0  0  0  0
   -0.2860   -3.9180   -0.9480 H   0  0  0  0  0  0  0  0  0  0  0  0
   -0.2030   -1.9620    1.3930 H   0  0  0  0  0  0  0  0  0  0  0  0
    3.6950    4.2420    0.5490 H   0  0  0  0  0  0  0  0  0  0  0  0
   -2.1410    0.9300   -1.2770 H   0  0  0  0  0  0  0  0  0  0  0  0
   -2.8720   -0.4820   -2.0760 H   0  0  0  0  0  0  0  0  0  0  0  0
   -4.6030   -0.5550   -0.2560 H   0  0  0  0  0  0  0  0  0  0  0  0
   -4.3530    2.1090   -1.7240 H   0  0  0  0  0  0  0  0  0  0  0  0
   -5.0470    0.6140   -2.3970 H   0  0  0  0  0  0  0  0  0  0  0  0
   -6.8270    2.1270   -1.5660 H   0  0  0  0  0  0  0  0  0  0  0  0
   -6.7780    0.6190   -0.6220 H   0  0  0  0  0  0  0  0  0  0  0  0
   -5.4840    3.2650    0.1800 H   0  0  0  0  0  0  0  0  0  0  0  0
   -6.9840    2.5930    0.8640 H   0  0  0  0  0  0  0  0  0  0  0  0
   -5.0400    2.0950    2.3210 H   0  0  0  0  0  0  0  0  0  0  0  0
   -5.7340    0.6000    1.6480 H   0  0  0  0  0  0  0  0  0  0  0  0
   -3.2600    0.5820    1.4900 H   0  0  0  0  0  0  0  0  0  0  0  0
   -3.3090    2.0900    0.5460 H   0  0  0  0  0  0  0  0  0  0  0  0
    6.1250   -1.6310   -0.7160 H   0  0  0  0  0  0  0  0  0  0  0  0
   -0.3340   -1.0660   -1.3840 H   0  0  0  0  0  0  0  0  0  0  0  0
    1.2330   -0.0130    0.4380 H   0  0  0  0  0  0  0  0  0  0  0  0
    2.0170    2.3250    0.6110 H   0  0  0  0  0  0  0  0  0  0  0  0
 12 13  1  0  0  0  0
 13 14  1  0  0  0  0
 11 12  1  0  0  0  0
 14 15  1  0  0  0  0
 10 11  1  0  0  0  0
 10 15  1  0  0  0  0
  9 10  1  0  0  0  0
  4  5  1  0  0  0  0
  8  9  1  0  0  0  0
  5  6  1  0  0  0  0
  8 18  1  0  0  0  0
  6 18  1  0  0  0  0
  8 24  2  0  0  0  0
  3  6  1  0  0  0  0
  3 19  1  0  0  0  0
  1 19  1  0  0  0  0
  1 23  2  0  0  0  0
  1  2  1  0  0  0  0
  2 20  1  0  0  0  0
  7 20  1  0  0  0  0
 17 23  1  0  0  0  0
  2 16  2  0  0  0  0
  7 21  2  0  0  0  0
 17 22  2  0  0  0  0
 16 21  1  0  0  0  0
 16 22  1  0  0  0  0
  3 25  1  0  0  0  0
  3 26  1  0  0  0  0
  4 27  1  0  0  0  0
  4 28  1  0  0  0  0
  4 29  1  0  0  0  0
  5 30  1  0  0  0  0
  5 31  1  0  0  0  0
  6 32  1  0  0  0  0
  7 33  1  0  0  0  0
  9 34  1  0  0  0  0
  9 35  1  0  0  0  0
 10 36  1  0  0  0  0
 11 37  1  0  0  0  0
 11 38  1  0  0  0  0
 12 39  1  0  0  0  0
 12 40  1  0  0  0  0
 13 41  1  0  0  0  0
 13 42  1  0  0  0  0
 14 43  1  0  0  0  0
 14 44  1  0  0  0  0
 15 45  1  0  0  0  0
 15 46  1  0  0  0  0
 17 47  1  0  0  0  0
 18 48  1  0  0  0  0
 19 49  1  0  0  0  0
 20 50  1  0  0  0  0
M  END
> <OPENEYE_ISO_SMILES>
CC[C@@H](CNc1c2c(nc[nH]2)ncn1)NC(=O)CC3CCCCC3

> <OPENEYE_INCHI>
InChI=1S/C17H26N6O/c1-2-13(23-14(24)8-12-6-4-3-5-7-12)9-18-16-15-17(20-10-19-15)22-11-21-16/h10-13H,2-9H2,1H3,(H,23,24)(H2,18,19,20,21,22)/t13-/m0/s1

> <OPENEYE_INCHIKEY>
DESZZRQUGKNYDX-ZDUSSCGKSA-N

> <FORMULA>
C17H26N6O

$$$$
