@<TRIPOS>MOLECULE
/home/pku/3cl/gett_pdb/5SPD/5SPD_mol2/ligand/5SPD_QYJ.pdb
 49 52 0 0 0
SMALL
GASTEIGER

@<TRIPOS>ATOM
      1  C18      -49.7220  -29.0360    6.5770 C.ar  201  QYJ201      0.0348
      2  C16      -47.7000  -29.1860    5.3280 C.ar  201  QYJ201     -0.0479
      3  C17      -48.3450  -29.1270    6.5450 C.ar  201  QYJ201     -0.0397
      4  C15      -48.4680  -29.1550    4.1670 C.ar  201  QYJ201      0.0368
      5  C14      -47.7820  -29.2610    2.8050 C.2   201  QYJ201      0.2445
      6  C12      -45.8010  -30.0830    1.5510 C.3   201  QYJ201      0.0572
      7  C11      -45.6440  -31.4800    0.9060 C.ar  201  QYJ201     -0.0199
      8  C10      -46.4800  -32.5970    0.7510 C.ar  201  QYJ201     -0.0563
      9  C20      -51.6910  -29.1190    8.1870 C.2   201  QYJ201      0.3041
     10  C02      -43.8090  -29.9260    3.0990 C.2   201  QYJ201      0.0472
     11  C03      -44.4210  -29.5560    1.7450 C.3   201  QYJ201      0.0252
     12  C04      -43.6540  -30.1600    0.6070 C.3   201  QYJ201     -0.0140
     13  C05      -44.3780  -31.5010    0.3140 C.ar  201  QYJ201     -0.0003
     14  C06      -43.9260  -32.6140   -0.3820 C.ar  201  QYJ201      0.1204
     15  C08      -44.7500  -33.7270   -0.5200 C.ar  201  QYJ201     -0.0199
     16  C09      -46.0280  -33.7170    0.0470 C.ar  201  QYJ201     -0.0580
     17  C22      -53.4050  -29.2520    9.9640 C.3   201  QYJ201      0.0247
     18  C23      -54.0220  -30.5570    9.4480 C.3   201  QYJ201     -0.0328
     19  C24      -53.7540  -30.3690   10.9420 C.3   201  QYJ201     -0.0328
     20  C26      -50.4980  -29.0520    5.4210 C.ar  201  QYJ201     -0.0397
     21  C27      -49.8510  -29.1030    4.2010 C.ar  201  QYJ201     -0.0479
     22  N13      -46.4880  -29.9410    2.8120 N.am  201  QYJ201     -0.3039
     23  N19      -50.2750  -29.0430    7.9080 N.am  201  QYJ201     -0.2695
     24  N21      -52.0070  -29.1850    9.5960 N.am  201  QYJ201     -0.2963
     25  O01      -43.1360  -29.0560    3.7200 O.co2 201  QYJ201     -0.5495
     26  O07      -42.6340  -32.5650   -0.9360 O.3   201  QYJ201     -0.5065
     27  O25      -52.5420  -29.1060    7.3580 O.2   201  QYJ201     -0.2525
     28  O28      -48.2990  -28.9120    1.7960 O.2   201  QYJ201     -0.2702
     29  O29      -43.9890  -31.0770    3.5940 O.co2 201  QYJ201     -0.5495
     30 H161      -46.6110  -29.2340    5.2920 H     201  QYJ201      0.0626
     31 H171      -47.7860  -29.1380    7.4850 H     201  QYJ201      0.0636
     32 H121      -46.3160  -29.4640    0.8230 H     201  QYJ201      0.0555
     33 H101      -47.4770  -32.6110    1.1820 H     201  QYJ201      0.0621
     34 H031      -44.4710  -28.4950    1.6240 H     201  QYJ201      0.0385
     35 H041      -43.7200  -29.4920   -0.2390 H     201  QYJ201      0.0321
     36 H042      -42.6320  -30.3680    0.9010 H     201  QYJ201      0.0321
     37 H081      -44.4050  -34.6000   -1.0660 H     201  QYJ201      0.0654
     38 H091      -46.6690  -34.5910   -0.0630 H     201  QYJ201      0.0619
     39 H221      -54.0470  -28.3780    9.9260 H     201  QYJ201      0.0499
     40 H231      -53.3330  -31.2180    8.9180 H     201  QYJ201      0.0284
     41 H232      -55.0600  -30.4890    9.1380 H     201  QYJ201      0.0284
     42 H241      -54.6270  -30.1890   11.5530 H     201  QYJ201      0.0284
     43 H242      -52.9040  -30.9200   11.3400 H     201  QYJ201      0.0284
     44 H261      -51.5890  -29.0030    5.4600 H     201  QYJ201      0.0636
     45 H271      -50.4110  -29.0990    3.2700 H     201  QYJ201      0.0626
     46 H131      -46.0710  -30.2160    3.6840 H     201  QYJ201      0.1496
     47 H191      -49.6450  -29.0970    8.6810 H     201  QYJ201      0.1564
     48 H211      -51.2720  -29.1960   10.2780 H     201  QYJ201      0.1505
     49 H071      -42.6630  -32.8380   -1.8410 H     201  QYJ201      0.2921
@<TRIPOS>UNITY_ATOM_ATTR
25 1
charge -1
@<TRIPOS>BOND
     1    49    26    1
     2    37    15    1
     3    26    14    1
     4    15    14   ar
     5    15    16   ar
     6    14    13   ar
     7    35    12    1
     8    38    16    1
     9    16     8   ar
    10    13    12    1
    11    13     7   ar
    12    12    36    1
    13    12    11    1
    14     8     7   ar
    15     8    33    1
    16    32     6    1
    17     7     6    1
    18     6    11    1
    19     6    22    1
    20    34    11    1
    21    11    10    1
    22    28     5    2
    23     5    22   am
    24     5     4    1
    25    22    46    1
    26    10    29   ar
    27    10    25   ar
    28    45    21    1
    29     4    21   ar
    30     4     2   ar
    31    21    20   ar
    32    30     2    1
    33     2     3   ar
    34    20    44    1
    35    20     1   ar
    36     3     1   ar
    37     3    31    1
    38     1    23    1
    39    27     9    2
    40    23     9   am
    41    23    47    1
    42     9    24   am
    43    40    18    1
    44    41    18    1
    45    18    17    1
    46    18    19    1
    47    24    17    1
    48    24    48    1
    49    39    17    1
    50    17    19    1
    51    19    43    1
    52    19    42    1
