R9F
  -OEChem-02242320033D

 22 24  0     0  0  0  0  0  0999 V2000
    2.5910    1.3020    0.0010 C   0  0  0  0  0  0  0  0  0  0  0  0
    1.2240    1.4720    0.0010 C   0  0  0  0  0  0  0  0  0  0  0  0
    0.3860    0.3590   -0.0000 C   0  0  0  0  0  0  0  0  0  0  0  0
   -1.0750    0.1860   -0.0010 C   0  0  0  0  0  0  0  0  0  0  0  0
   -2.1690    1.0590   -0.0000 C   0  0  0  0  0  0  0  0  0  0  0  0
    3.1360    0.0240    0.0010 C   0  0  0  0  0  0  0  0  0  0  0  0
    2.3170   -1.0870    0.0060 C   0  0  0  0  0  0  0  0  0  0  0  0
    0.9350   -0.9330   -0.0000 C   0  0  0  0  0  0  0  0  0  0  0  0
   -1.3150   -1.1970   -0.0010 C   0  0  0  0  0  0  0  0  0  0  0  0
   -3.5780   -0.7660   -0.0010 C   0  0  0  0  0  0  0  0  0  0  0  0
    4.4780   -0.1320   -0.0040 F   0  0  0  0  0  0  0  0  0  0  0  0
   -0.1050   -1.8470   -0.0010 N   0  0  0  0  0  0  0  0  0  0  0  0
   -2.5780   -1.6220   -0.0010 N   0  0  0  0  0  0  0  0  0  0  0  0
   -3.3950    0.5410    0.0000 N   0  0  0  0  0  0  0  0  0  0  0  0
   -1.9800    2.4300    0.0000 N   0  0  0  0  0  0  0  0  0  0  0  0
    3.2410    2.1640   -0.0030 H   0  0  0  0  0  0  0  0  0  0  0  0
    0.8030    2.4670    0.0010 H   0  0  0  0  0  0  0  0  0  0  0  0
    2.7500   -2.0760    0.0060 H   0  0  0  0  0  0  0  0  0  0  0  0
   -4.5880   -1.1480   -0.0010 H   0  0  0  0  0  0  0  0  0  0  0  0
    0.0050   -2.8110   -0.0010 H   0  0  0  0  0  0  0  0  0  0  0  0
   -2.7470    3.0250    0.0010 H   0  0  0  0  0  0  0  0  0  0  0  0
   -1.0820    2.7960    0.0000 H   0  0  0  0  0  0  0  0  0  0  0  0
  5 15  1  0  0  0  0
  1  2  2  0  0  0  0
  2  3  1  0  0  0  0
  1  6  1  0  0  0  0
  5 14  2  0  0  0  0
  4  5  1  0  0  0  0
  3  4  1  0  0  0  0
  3  8  2  0  0  0  0
  6 11  1  0  0  0  0
  6  7  2  0  0  0  0
 10 14  1  0  0  0  0
  4  9  2  0  0  0  0
  7  8  1  0  0  0  0
  8 12  1  0  0  0  0
 10 13  2  0  0  0  0
  9 12  1  0  0  0  0
  9 13  1  0  0  0  0
  1 16  1  0  0  0  0
  2 17  1  0  0  0  0
  7 18  1  0  0  0  0
 10 19  1  0  0  0  0
 12 20  1  0  0  0  0
 15 21  1  0  0  0  0
 15 22  1  0  0  0  0
M  END
> <OPENEYE_ISO_SMILES>
c1cc2c(cc1F)[nH]c3c2c(ncn3)N

> <OPENEYE_INCHI>
InChI=1S/C10H7FN4/c11-5-1-2-6-7(3-5)15-10-8(6)9(12)13-4-14-10/h1-4H,(H3,12,13,14,15)

> <OPENEYE_INCHIKEY>
LFMLBPCSGKLSSW-UHFFFAOYSA-N

> <FORMULA>
C10H7FN4

$$$$
