06Y
  -OEChem-02242320003D

 19 19  0     0  0  0  0  0  0999 V2000
    2.7860   -0.0180    0.0020 C   0  0  0  0  0  0  0  0  0  0  0  0
    2.9900    1.1730    0.0000 O   0  0  0  0  0  0  0  0  0  0  0  0
    1.3720   -0.5400    0.0020 C   0  0  0  0  0  0  0  0  0  0  0  0
    0.4590    0.5580    0.0010 O   0  0  0  0  0  0  0  0  0  0  0  0
   -0.8670    0.2590    0.0010 C   0  0  0  0  0  0  0  0  0  0  0  0
   -1.8090    1.2760   -0.0010 C   0  0  0  0  0  0  0  0  0  0  0  0
   -3.1560    0.9690   -0.0010 C   0  0  0  0  0  0  0  0  0  0  0  0
   -3.5650   -0.3520    0.0010 C   0  0  0  0  0  0  0  0  0  0  0  0
   -2.6280   -1.3680    0.0030 C   0  0  0  0  0  0  0  0  0  0  0  0
   -1.2800   -1.0660   -0.0040 C   0  0  0  0  0  0  0  0  0  0  0  0
    1.2100   -1.1490   -0.8870 H   0  0  0  0  0  0  0  0  0  0  0  0
    1.2090   -1.1470    0.8930 H   0  0  0  0  0  0  0  0  0  0  0  0
   -1.4910    2.3080   -0.0020 H   0  0  0  0  0  0  0  0  0  0  0  0
   -3.8910    1.7610   -0.0020 H   0  0  0  0  0  0  0  0  0  0  0  0
   -4.6190   -0.5900    0.0010 H   0  0  0  0  0  0  0  0  0  0  0  0
   -2.9500   -2.3990   -0.0000 H   0  0  0  0  0  0  0  0  0  0  0  0
   -0.5480   -1.8600   -0.0020 H   0  0  0  0  0  0  0  0  0  0  0  0
    3.8180   -0.8760   -0.0020 O   0  0  0  0  0  0  0  0  0  0  0  0
    4.7070   -0.4940   -0.0020 H   0  0  0  0  0  0  0  0  0  0  0  0
  9 10  2  0  0  0  0
  8  9  1  0  0  0  0
  5 10  1  0  0  0  0
  7  8  2  0  0  0  0
  4  5  1  0  0  0  0
  5  6  2  0  0  0  0
  3  4  1  0  0  0  0
  6  7  1  0  0  0  0
  1  3  1  0  0  0  0
  1  2  2  0  0  0  0
  3 11  1  0  0  0  0
  3 12  1  0  0  0  0
  6 13  1  0  0  0  0
  7 14  1  0  0  0  0
  8 15  1  0  0  0  0
  9 16  1  0  0  0  0
 10 17  1  0  0  0  0
  1 18  1  0  0  0  0
 18 19  1  0  0  0  0
M  END
> <OPENEYE_ISO_SMILES>
c1ccc(cc1)OCC(=O)O

> <OPENEYE_INCHI>
InChI=1S/C8H8O3/c9-8(10)6-11-7-4-2-1-3-5-7/h1-5H,6H2,(H,9,10)

> <OPENEYE_INCHIKEY>
LCPDWSOZIOUXRV-UHFFFAOYSA-N

> <FORMULA>
C8H8O3

$$$$
