@<TRIPOS>MOLECULE
/home/pku/3cl/gett_pdb/5RS8/5RS8_mol2/ligand/5RS8_H35.pdb
 25 27 0 0 0
SMALL
GASTEIGER

@<TRIPOS>ATOM
      1  CAM      -50.7880  -31.7130    8.2300 C.ar  201  H35201     -0.0194
      2  CAO      -50.9550  -33.0040    7.7430 C.ar  201  H35201     -0.0236
      3  CAN      -50.6960  -32.9710    6.4000 C.ar  201  H35201      0.0921
      4  OAL      -50.4010  -31.7130    6.0670 O.2   201  H35201     -0.4665
      5  CAK      -50.4290  -30.9320    7.1630 C.ar  201  H35201      0.1186
      6  CAP      -50.1310  -29.4330    7.1880 C.3   201  H35201      0.0568
      7  N6       -48.6990  -29.2050    7.1980 N.3   201  H35201     -0.2773
      8  C6       -47.9740  -29.2670    5.9380 C.3   201  H35201      0.2034
      9  N1       -48.5870  -29.1560    4.7980 N.2   201  H35201     -0.2417
     10  C2       -47.9510  -29.2160    3.6610 C.2   201  H35201      0.1049
     11  N3       -46.6450  -29.3550    3.5830 N.pl3 201  H35201     -0.1843
     12  C4       -45.9590  -29.4520    4.7150 C.ar  201  H35201      0.1481
     13  C5       -46.6000  -29.3880    5.9220 C.ar  201  H35201      0.1286
     14  N7       -45.6810  -29.5100    6.8840 N.ar  201  H35201     -0.2349
     15  C8       -44.5360  -29.6120    6.2800 C.ar  201  H35201      0.0952
     16  N9       -44.6660  -29.5790    4.9710 N.ar  201  H35201     -0.3314
     17  HAM      -50.8870  -31.4360    9.1110 H     201  H35201      0.0652
     18  HAO      -51.1960  -33.7520    8.2390 H     201  H35201      0.0649
     19  HAN      -50.7440  -33.6930    5.8170 H     201  H35201      0.1029
     20 HAP1      -50.5080  -29.0570    7.9610 H     201  H35201      0.0505
     21 HAP2      -50.5100  -29.0270    6.4310 H     201  H35201      0.0505
     22  H6       -48.2830  -29.0350    7.9410 H     201  H35201      0.1251
     23  H2       -48.4360  -29.1490    2.8750 H     201  H35201      0.1015
     24  H8       -43.7240  -29.7100    6.7190 H     201  H35201      0.1027
     25 H121      -44.0270  -29.6360    4.3870 H     201  H35201      0.1680
@<TRIPOS>BOND
     1    23    10    1
     2    11    10    1
     3    11    12    1
     4    10     9    2
     5    25    16    1
     6    12    16   ar
     7    12    13   ar
     8     9     8    1
     9    16    15   ar
    10    19     3    1
    11    13     8    1
    12    13    14   ar
    13     8     7    1
    14     4     3   ar
    15     4     5   ar
    16    15    24    1
    17    15    14   ar
    18     3     2   ar
    19    21     6    1
    20     5     6    1
    21     5     1   ar
    22     6     7    1
    23     6    20    1
    24     7    22    1
    25     2     1   ar
    26     2    18    1
    27     1    17    1
