ZZA
  -OEChem-02242320043D

 22 23  0     0  0  0  0  0  0999 V2000
    4.6700   12.1770    4.8990 O   0  0  0  0  0  0  0  0  0  0  0  0
    4.3670   13.4170    4.4750 C   0  0  0  0  0  0  0  0  0  0  0  0
    3.9480   14.2250    5.2790 O   0  0  0  0  0  0  0  0  0  0  0  0
    4.5400   13.7980    3.0550 C   0  0  0  0  0  0  0  0  0  0  0  0
    5.0740   12.9930    2.0160 C   0  0  0  0  0  0  0  0  0  0  0  0
    5.0620   13.6980    0.9090 N   0  0  0  0  0  0  0  0  0  0  0  0
    4.5220   14.9710    1.1760 N   0  0  0  0  0  0  0  0  0  0  0  0
    4.2180   15.0230    2.4910 C   0  0  0  0  0  0  0  0  0  0  0  0
    4.3540   16.0240    0.2460 C   0  0  0  0  0  0  0  0  0  0  0  0
    3.3840   17.0130    0.4510 C   0  0  0  0  0  0  0  0  0  0  0  0
    3.2460   18.0480   -0.4570 C   0  0  0  0  0  0  0  0  0  0  0  0
    4.0610   18.1130   -1.5780 C   0  0  0  0  0  0  0  0  0  0  0  0
    5.0210   17.1360   -1.7960 C   0  0  0  0  0  0  0  0  0  0  0  0
    5.1700   16.0990   -0.8840 C   0  0  0  0  0  0  0  0  0  0  0  0
    4.5000   12.1100    5.8310 H   0  0  0  0  0  0  0  0  0  0  0  0
    5.4280   11.9780    2.1180 H   0  0  0  0  0  0  0  0  0  0  0  0
    3.7980   15.8700    3.0120 H   0  0  0  0  0  0  0  0  0  0  0  0
    2.7430   16.9680    1.3190 H   0  0  0  0  0  0  0  0  0  0  0  0
    5.9240   15.3440   -1.0510 H   0  0  0  0  0  0  0  0  0  0  0  0
    2.4990   18.8100   -0.2920 H   0  0  0  0  0  0  0  0  0  0  0  0
    3.9480   18.9250   -2.2810 H   0  0  0  0  0  0  0  0  0  0  0  0
    5.6510   17.1810   -2.6720 H   0  0  0  0  0  0  0  0  0  0  0  0
  1  2  1  0  0  0  0
  2  3  2  0  0  0  0
  2  4  1  0  0  0  0
  4  5  1  0  0  0  0
  4  8  2  0  0  0  0
  5  6  2  0  0  0  0
  6  7  1  0  0  0  0
  7  8  1  0  0  0  0
  7  9  1  0  0  0  0
  9 10  1  0  0  0  0
  9 14  2  0  0  0  0
 10 11  2  0  0  0  0
 11 12  1  0  0  0  0
 12 13  2  0  0  0  0
 13 14  1  0  0  0  0
  1 15  1  0  0  0  0
  5 16  1  0  0  0  0
  8 17  1  0  0  0  0
 10 18  1  0  0  0  0
 14 19  1  0  0  0  0
 11 20  1  0  0  0  0
 12 21  1  0  0  0  0
 13 22  1  0  0  0  0
M  END
> <OPENEYE_ISO_SMILES>
c1ccc(cc1)n2cc(cn2)C(=O)O

> <OPENEYE_INCHI>
InChI=1S/C10H8N2O2/c13-10(14)8-6-11-12(7-8)9-4-2-1-3-5-9/h1-7H,(H,13,14)

> <OPENEYE_INCHIKEY>
ZROILLPDIUNLSE-UHFFFAOYSA-N

> <FORMULA>
C10H8N2O2

$$$$
