ELQ
  -OEChem-02242320023D

 31 32  0     0  0  0  0  0  0999 V2000
   -0.8690    0.5290    0.3340 C   0  0  0  0  0  0  0  0  0  0  0  0
   -3.3110   -0.7750    0.1960 C   0  0  0  0  0  0  0  0  0  0  0  0
   -1.8630    0.9950   -0.5300 C   0  0  0  0  0  0  0  0  0  0  0  0
    4.9730   -1.3470   -1.0640 C   0  0  0  0  0  0  0  0  0  0  0  0
    3.8590    0.6590   -0.2900 C   0  0  0  0  0  0  0  0  0  0  0  0
    2.8610    1.1910    0.7420 C   0  0  0  0  0  0  0  0  0  0  0  0
    1.5560   -0.9520    0.4640 C   0  0  0  0  0  0  0  0  0  0  0  0
    2.6060   -1.4000   -0.5580 C   0  0  0  0  0  0  0  0  0  0  0  0
    0.4310    1.2270    0.4130 C   0  0  0  0  0  0  0  0  0  0  0  0
   -1.1100   -0.5950    1.1270 C   0  0  0  0  0  0  0  0  0  0  0  0
   -2.3270   -1.2400    1.0540 C   0  0  0  0  0  0  0  0  0  0  0  0
   -3.0750    0.3390   -0.5990 C   0  0  0  0  0  0  0  0  0  0  0  0
   -4.0380    0.7880   -1.4340 F   0  0  0  0  0  0  0  0  0  0  0  0
   -4.4990   -1.4140    0.1240 F   0  0  0  0  0  0  0  0  0  0  0  0
    3.9050   -0.8080   -0.2120 N   0  0  0  0  0  0  0  0  0  0  0  0
    1.5700    0.5170    0.5350 N   0  0  0  0  0  0  0  0  0  0  0  0
    0.4720    2.4410    0.3690 O   0  0  0  0  0  0  0  0  0  0  0  0
   -1.6830    1.8670   -1.1410 H   0  0  0  0  0  0  0  0  0  0  0  0
    5.9340   -0.9500   -0.7370 H   0  0  0  0  0  0  0  0  0  0  0  0
    4.9840   -2.4350   -0.9870 H   0  0  0  0  0  0  0  0  0  0  0  0
    4.7930   -1.0580   -2.0990 H   0  0  0  0  0  0  0  0  0  0  0  0
    3.5450    0.9600   -1.2900 H   0  0  0  0  0  0  0  0  0  0  0  0
    4.8490    1.0650   -0.0820 H   0  0  0  0  0  0  0  0  0  0  0  0
    3.2260    0.9810    1.7470 H   0  0  0  0  0  0  0  0  0  0  0  0
    2.7370    2.2660    0.6120 H   0  0  0  0  0  0  0  0  0  0  0  0
    0.5700   -1.2940    0.1490 H   0  0  0  0  0  0  0  0  0  0  0  0
    1.7940   -1.3710    1.4420 H   0  0  0  0  0  0  0  0  0  0  0  0
    2.6870   -2.4870   -0.5430 H   0  0  0  0  0  0  0  0  0  0  0  0
    2.3090   -1.0700   -1.5530 H   0  0  0  0  0  0  0  0  0  0  0  0
   -0.3450   -0.9590    1.7960 H   0  0  0  0  0  0  0  0  0  0  0  0
   -2.5130   -2.1090    1.6670 H   0  0  0  0  0  0  0  0  0  0  0  0
  9 17  2  0  0  0  0
 10 11  2  0  0  0  0
  1 10  1  0  0  0  0
  1  9  1  0  0  0  0
  9 16  1  0  0  0  0
  2 11  1  0  0  0  0
  5  6  1  0  0  0  0
  5 15  1  0  0  0  0
  1  3  2  0  0  0  0
  2 14  1  0  0  0  0
  2 12  2  0  0  0  0
  6 16  1  0  0  0  0
  3 12  1  0  0  0  0
  7 16  1  0  0  0  0
 12 13  1  0  0  0  0
  8 15  1  0  0  0  0
  7  8  1  0  0  0  0
  4 15  1  0  0  0  0
  3 18  1  0  0  0  0
  4 19  1  0  0  0  0
  4 20  1  0  0  0  0
  4 21  1  0  0  0  0
  5 22  1  0  0  0  0
  5 23  1  0  0  0  0
  6 24  1  0  0  0  0
  6 25  1  0  0  0  0
  7 26  1  0  0  0  0
  7 27  1  0  0  0  0
  8 28  1  0  0  0  0
  8 29  1  0  0  0  0
 10 30  1  0  0  0  0
 11 31  1  0  0  0  0
M  END
> <OPENEYE_ISO_SMILES>
CN1CCN(CC1)C(=O)c2ccc(c(c2)F)F

> <OPENEYE_INCHI>
InChI=1S/C12H14F2N2O/c1-15-4-6-16(7-5-15)12(17)9-2-3-10(13)11(14)8-9/h2-3,8H,4-7H2,1H3

> <OPENEYE_INCHIKEY>
ZCPNSVBDWJVJSY-UHFFFAOYSA-N

> <FORMULA>
C12H14F2N2O

$$$$
