@<TRIPOS>MOLECULE
/home/pku/3cl/gett_pdb/5RSP/5RSP_mol2/ligand/5RSP_LSA.pdb
 17 18 0 0 0
SMALL
GASTEIGER

@<TRIPOS>ATOM
      1  C4       -46.6190  -35.6960   -1.5430 C.ar  201  LSA201     -0.0599
      2  C5       -46.4380  -34.9550   -0.3740 C.ar  201  LSA201     -0.0343
      3  C6       -45.4100  -34.0260   -0.2960 C.ar  201  LSA201      0.1207
      4  C7       -43.4330  -32.6750   -1.0240 C.2   201  LSA201      0.2649
      5  C3       -45.7700  -35.5080   -2.6410 C.ar  201  LSA201     -0.0609
      6  S10      -44.9140  -33.0160    0.9830 S.O2  201  LSA201      0.0754
      7  N9       -43.7060  -32.1780    0.3920 N.am  201  LSA201     -0.1814
      8  O8       -42.6150  -32.3690   -1.8240 O.2   201  LSA201     -0.2685
      9  C1       -44.5570  -33.8590   -1.4000 C.ar  201  LSA201      0.0648
     10  C2       -44.7360  -34.5730   -2.5760 C.ar  201  LSA201     -0.0477
     11  O12      -45.9210  -32.0390    1.3340 O.2   201  LSA201     -0.1499
     12  O11      -44.4250  -33.7990    2.0810 O.2   201  LSA201     -0.1499
     13  H4       -47.2940  -36.3190   -1.6020 H     201  LSA201      0.0618
     14  H5       -46.9970  -35.0930    0.3560 H     201  LSA201      0.0637
     15  H3       -45.8990  -36.0020   -3.4180 H     201  LSA201      0.0618
     16  HN9      -43.2380  -31.5980    0.8210 H     201  LSA201      0.1769
     17  H2       -44.1700  -34.4410   -3.3020 H     201  LSA201      0.0626
@<TRIPOS>BOND
     1    15     5    1
     2    17    10    1
     3     5    10   ar
     4     5     1   ar
     5    10     9   ar
     6     8     4    2
     7    13     1    1
     8     1     2   ar
     9     9     4    1
    10     9     3   ar
    11     4     7   am
    12     2     3   ar
    13     2    14    1
    14     3     6    1
    15     7    16    1
    16     7     6    1
    17     6    11    2
    18     6    12    2
