I68
  -OEChem-02242320023D

 82 82  0     1  0  0  0  0  0999 V2000
   -7.2470   -0.3600    0.7370 C   0  0  0  0  0  0  0  0  0  0  0  0
   -2.4500    3.0710   -0.3760 C   0  0  0  0  0  0  0  0  0  0  0  0
   -2.6110    0.5780   -0.4280 C   0  0  2  0  0  0  0  0  0  0  0  0
   -1.2860    0.5240    0.2880 C   0  0  0  0  0  0  0  0  0  0  0  0
    0.6390   -3.7160    1.3290 C   0  0  0  0  0  0  0  0  0  0  0  0
    1.0880   -0.0210    0.3480 C   0  0  2  0  0  0  0  0  0  0  0  0
    2.2100   -0.2030   -0.6420 C   0  0  0  0  0  0  0  0  0  0  0  0
    4.5620   -0.5630   -1.1660 C   0  0  1  0  0  0  0  0  0  0  0  0
    5.8830   -0.1350   -0.5240 C   0  0  0  0  0  0  0  0  0  0  0  0
   -7.1460   -1.8230    0.3020 C   0  0  0  0  0  0  0  0  0  0  0  0
    5.8440    1.3660   -0.2280 C   0  0  2  0  0  0  0  0  0  0  0  0
    7.1810    1.8290    0.3950 C   0  0  0  0  0  0  0  0  0  0  0  0
    6.8760    1.7330    1.9060 C   0  0  0  0  0  0  0  0  0  0  0  0
    4.8140    1.6680    0.8380 C   0  0  0  0  0  0  0  0  0  0  0  0
   -7.7930    0.4790   -0.4200 C   0  0  0  0  0  0  0  0  0  0  0  0
   -2.6830    1.8530   -1.2720 C   0  0  0  0  0  0  0  0  0  0  0  0
   -4.0630    1.9560   -1.9240 C   0  0  0  0  0  0  0  0  0  0  0  0
   -1.6070    1.8060   -2.3590 C   0  0  0  0  0  0  0  0  0  0  0  0
    1.0100   -1.2460    1.2610 C   0  0  0  0  0  0  0  0  0  0  0  0
    0.8140   -2.5030    0.4120 C   0  0  0  0  0  0  0  0  0  0  0  0
    2.0400   -2.7120   -0.4800 C   0  0  0  0  0  0  0  0  0  0  0  0
   -0.4310   -2.3400   -0.4620 C   0  0  0  0  0  0  0  0  0  0  0  0
   -8.1910   -0.2490    1.9360 C   0  0  0  0  0  0  0  0  0  0  0  0
    4.6470   -2.0340   -1.5760 C   0  0  0  0  0  0  0  0  0  0  0  0
   -4.9200    0.1290    0.2080 C   0  0  0  0  0  0  0  0  0  0  0  0
   -3.6980    0.5810    0.5540 N   0  0  0  0  0  0  0  0  0  0  0  0
   -0.1780    0.1330   -0.3730 N   0  0  0  0  0  0  0  0  0  0  0  0
    3.4710   -0.3860   -0.2040 N   0  0  0  0  0  0  0  0  0  0  0  0
    5.4190    1.8750    2.0200 N   0  0  0  0  0  0  0  0  0  0  0  0
   -5.9190    0.1310    1.1120 N   0  0  0  0  0  0  0  0  0  0  0  0
    3.6160    1.7180    0.6530 O   0  0  0  0  0  0  0  0  0  0  0  0
   -5.1200   -0.2810   -0.9190 O   0  0  0  0  0  0  0  0  0  0  0  0
   -1.2170    0.8320    1.4590 O   0  0  0  0  0  0  0  0  0  0  0  0
    1.9770   -0.1850   -1.8320 O   0  0  0  0  0  0  0  0  0  0  0  0
    5.0110   -2.8240   -0.4420 O   0  0  0  0  0  0  0  0  0  0  0  0
   -1.4670    2.9980    0.0890 H   0  0  0  0  0  0  0  0  0  0  0  0
   -2.5010    3.9790   -0.9760 H   0  0  0  0  0  0  0  0  0  0  0  0
   -3.2160    3.1040    0.3990 H   0  0  0  0  0  0  0  0  0  0  0  0
   -2.7090   -0.2920   -1.0770 H   0  0  0  0  0  0  0  0  0  0  0  0
   -0.2340   -3.5670    1.9640 H   0  0  0  0  0  0  0  0  0  0  0  0
    0.5000   -4.6120    0.7240 H   0  0  0  0  0  0  0  0  0  0  0  0
    1.5260   -3.8320    1.9510 H   0  0  0  0  0  0  0  0  0  0  0  0
    1.2740    0.8690    0.9490 H   0  0  0  0  0  0  0  0  0  0  0  0
    4.3720    0.0490   -2.0480 H   0  0  0  0  0  0  0  0  0  0  0  0
    6.0300   -0.6850    0.4060 H   0  0  0  0  0  0  0  0  0  0  0  0
    6.7050   -0.3490   -1.2070 H   0  0  0  0  0  0  0  0  0  0  0  0
   -6.4740   -1.9030   -0.5530 H   0  0  0  0  0  0  0  0  0  0  0  0
   -6.7570   -2.4210    1.1260 H   0  0  0  0  0  0  0  0  0  0  0  0
   -8.1340   -2.1890    0.0220 H   0  0  0  0  0  0  0  0  0  0  0  0
    5.6290    1.9270   -1.1370 H   0  0  0  0  0  0  0  0  0  0  0  0
    7.9940    1.1580    0.1180 H   0  0  0  0  0  0  0  0  0  0  0  0
    7.4100    2.8560    0.1070 H   0  0  0  0  0  0  0  0  0  0  0  0
    7.1920    0.7650    2.2940 H   0  0  0  0  0  0  0  0  0  0  0  0
    7.3760    2.5380    2.4440 H   0  0  0  0  0  0  0  0  0  0  0  0
   -8.7810    0.1140   -0.7000 H   0  0  0  0  0  0  0  0  0  0  0  0
   -7.8660    1.5220   -0.1110 H   0  0  0  0  0  0  0  0  0  0  0  0
   -7.1220    0.4000   -1.2750 H   0  0  0  0  0  0  0  0  0  0  0  0
   -4.1140    2.8640   -2.5240 H   0  0  0  0  0  0  0  0  0  0  0  0
   -4.2290    1.0880   -2.5620 H   0  0  0  0  0  0  0  0  0  0  0  0
   -4.8290    1.9890   -1.1490 H   0  0  0  0  0  0  0  0  0  0  0  0
   -0.6240    1.7410   -1.8940 H   0  0  0  0  0  0  0  0  0  0  0  0
   -1.7690    0.9340   -2.9930 H   0  0  0  0  0  0  0  0  0  0  0  0
   -1.6640    2.7110   -2.9650 H   0  0  0  0  0  0  0  0  0  0  0  0
    1.9340   -1.3330    1.8320 H   0  0  0  0  0  0  0  0  0  0  0  0
    0.1690   -1.1350    1.9460 H   0  0  0  0  0  0  0  0  0  0  0  0
    2.9460   -2.5290    0.0980 H   0  0  0  0  0  0  0  0  0  0  0  0
    2.0480   -3.7360   -0.8540 H   0  0  0  0  0  0  0  0  0  0  0  0
    2.0000   -2.0190   -1.3210 H   0  0  0  0  0  0  0  0  0  0  0  0
   -0.1930   -1.7100   -1.3190 H   0  0  0  0  0  0  0  0  0  0  0  0
   -0.7600   -3.3190   -0.8110 H   0  0  0  0  0  0  0  0  0  0  0  0
   -1.2260   -1.8760    0.1210 H   0  0  0  0  0  0  0  0  0  0  0  0
   -7.8020   -0.8470    2.7610 H   0  0  0  0  0  0  0  0  0  0  0  0
   -8.2630    0.7940    2.2460 H   0  0  0  0  0  0  0  0  0  0  0  0
   -9.1790   -0.6140    1.6570 H   0  0  0  0  0  0  0  0  0  0  0  0
    3.6780   -2.3630   -1.9520 H   0  0  0  0  0  0  0  0  0  0  0  0
    5.3980   -2.1510   -2.3570 H   0  0  0  0  0  0  0  0  0  0  0  0
   -3.5380    0.9080    1.4530 H   0  0  0  0  0  0  0  0  0  0  0  0
   -0.2200   -0.0460   -1.3250 H   0  0  0  0  0  0  0  0  0  0  0  0
    3.6570   -0.4000    0.7480 H   0  0  0  0  0  0  0  0  0  0  0  0
    4.9530    2.0910    2.8430 H   0  0  0  0  0  0  0  0  0  0  0  0
   -5.7600    0.4580    2.0110 H   0  0  0  0  0  0  0  0  0  0  0  0
    5.0840   -3.7700   -0.6290 H   0  0  0  0  0  0  0  0  0  0  0  0
  7 34  2  0  0  0  0
 24 35  1  0  0  0  0
 20 22  1  0  0  0  0
  8 24  1  0  0  0  0
 19 20  1  0  0  0  0
  6 19  1  0  0  0  0
  6  7  1  0  0  0  0
  7 28  1  0  0  0  0
 20 21  1  0  0  0  0
  5 20  1  0  0  0  0
  8 28  1  0  0  0  0
  8  9  1  0  0  0  0
 16 18  1  0  0  0  0
  6 27  1  0  0  0  0
  4 27  1  0  0  0  0
 11 12  1  0  0  0  0
 12 13  1  0  0  0  0
  9 11  1  0  0  0  0
  2 16  1  0  0  0  0
  3 16  1  0  0  0  0
 16 17  1  0  0  0  0
  3  4  1  0  0  0  0
  4 33  2  0  0  0  0
 11 14  1  0  0  0  0
  3 26  1  0  0  0  0
 13 29  1  0  0  0  0
 25 32  2  0  0  0  0
 14 29  1  0  0  0  0
 14 31  2  0  0  0  0
 25 26  1  0  0  0  0
 25 30  1  0  0  0  0
  1 15  1  0  0  0  0
  1 30  1  0  0  0  0
  1 23  1  0  0  0  0
  1 10  1  0  0  0  0
  2 36  1  0  0  0  0
  2 37  1  0  0  0  0
  2 38  1  0  0  0  0
  3 39  1  0  0  0  0
  5 40  1  0  0  0  0
  5 41  1  0  0  0  0
  5 42  1  0  0  0  0
  6 43  1  0  0  0  0
  8 44  1  0  0  0  0
  9 45  1  0  0  0  0
  9 46  1  0  0  0  0
 10 47  1  0  0  0  0
 10 48  1  0  0  0  0
 10 49  1  0  0  0  0
 11 50  1  0  0  0  0
 12 51  1  0  0  0  0
 12 52  1  0  0  0  0
 13 53  1  0  0  0  0
 13 54  1  0  0  0  0
 15 55  1  0  0  0  0
 15 56  1  0  0  0  0
 15 57  1  0  0  0  0
 17 58  1  0  0  0  0
 17 59  1  0  0  0  0
 17 60  1  0  0  0  0
 18 61  1  0  0  0  0
 18 62  1  0  0  0  0
 18 63  1  0  0  0  0
 19 64  1  0  0  0  0
 19 65  1  0  0  0  0
 21 66  1  0  0  0  0
 21 67  1  0  0  0  0
 21 68  1  0  0  0  0
 22 69  1  0  0  0  0
 22 70  1  0  0  0  0
 22 71  1  0  0  0  0
 23 72  1  0  0  0  0
 23 73  1  0  0  0  0
 23 74  1  0  0  0  0
 24 75  1  0  0  0  0
 24 76  1  0  0  0  0
 26 77  1  0  0  0  0
 27 78  1  0  0  0  0
 28 79  1  0  0  0  0
 29 80  1  0  0  0  0
 30 81  1  0  0  0  0
 35 82  1  0  0  0  0
M  END
> <OPENEYE_ISO_SMILES>
CC(C)(C)C[C@@H](C(=O)N[C@@H](C[C@@H]1CCNC1=O)CO)NC(=O)[C@H](C(C)(C)C)NC(=O)NC(C)(C)C

> <OPENEYE_INCHI>
InChI=1S/C25H47N5O5/c1-23(2,3)13-17(20(33)27-16(14-31)12-15-10-11-26-19(15)32)28-21(34)18(24(4,5)6)29-22(35)30-25(7,8)9/h15-18,31H,10-14H2,1-9H3,(H,26,32)(H,27,33)(H,28,34)(H2,29,30,35)/t15-,16-,17-,18+/m0/s1

> <OPENEYE_INCHIKEY>
AXOUOMLRYWWRDK-XLAORIBOSA-N

> <FORMULA>
C25H47N5O5

$$$$
