@<TRIPOS>MOLECULE
/home/pku/3cl/gett_pdb/5RVS/5RVS_mol2/ligand/5RVS_0LO.pdb
 23 24 0 0 0
SMALL
GASTEIGER

@<TRIPOS>ATOM
      1  CAF        9.6340    5.7170   17.4350 C.ar  201  0LO201     -0.0540
      2  CAD        8.9590    6.8310   17.8910 C.ar  201  0LO201     -0.0612
      3  CAC        8.0020    6.7050   18.8720 C.ar  201  0LO201     -0.0617
      4  CAE        7.7220    5.4610   19.4030 C.ar  201  0LO201     -0.0612
      5  CAG        8.3890    4.3470   18.9460 C.ar  201  0LO201     -0.0540
      6  CAN        9.3580    4.4660   17.9580 C.ar  201  0LO201     -0.0164
      7  CAO       10.0960    3.2230   17.4410 C.ar  201  0LO201      0.0008
      8  CAJ       10.5660    2.2290   18.2890 C.ar  201  0LO201     -0.0423
      9  CAI       10.2940    3.0600   16.0830 C.ar  201  0LO201      0.0353
     10  NAK       10.9090    2.0170   15.5860 N.ar  201  0LO201     -0.2620
     11  CAH       11.3700    1.0740   16.3580 C.ar  201  0LO201      0.0364
     12  CAM       11.2220    1.1390   17.7320 C.ar  201  0LO201      0.0160
     13  CAL       11.7510    0.0100   18.6200 C.2   201  0LO201      0.0731
     14  OAB       11.8940    0.1780   19.8500 O.co2 201  0LO201     -0.5446
     15  OAA       12.0240   -1.1050   18.1290 O.co2 201  0LO201     -0.5446
     16  H1        10.2750    5.8070   16.7670 H     201  0LO201      0.0624
     17  H2         9.1760    7.6730   17.5600 H     201  0LO201      0.0618
     18  H3         7.6350    7.4000   19.2920 H     201  0LO201      0.0618
     19  H4         7.1010    5.3800   20.0910 H     201  0LO201      0.0618
     20  H5         8.1940    3.5110   19.3050 H     201  0LO201      0.0624
     21  H6        10.4500    2.2950   19.2090 H     201  0LO201      0.0631
     22  H7         9.9840    3.7170   15.5020 H     201  0LO201      0.0836
     23  H8        11.8020    0.3430   15.9790 H     201  0LO201      0.0836
@<TRIPOS>UNITY_ATOM_ATTR
14 1
charge -1
@<TRIPOS>BOND
     1    22     9    1
     2    10     9   ar
     3    10    11   ar
     4    23    11    1
     5     9     7   ar
     6    11    12   ar
     7    16     1    1
     8     1     2   ar
     9     1     6   ar
    10     7     6    1
    11     7     8   ar
    12    17     2    1
    13    12     8   ar
    14    12    13    1
    15     2     3   ar
    16     6     5   ar
    17    15    13   ar
    18     8    21    1
    19    13    14   ar
    20     3    18    1
    21     3     4   ar
    22     5    20    1
    23     5     4   ar
    24     4    19    1
