@<TRIPOS>MOLECULE
/home/pku/3cl/gett_pdb/5C5N/5C5N_mol2/ligand/5C5N_SLH.pdb
 32 35 0 0 0
SMALL
GASTEIGER

@<TRIPOS>ATOM
      1  C1       -26.0410  -40.4810    3.7470 C.3   401  SLH401      0.0933
      2  C2       -26.2800  -40.9580    5.1370 C.3   401  SLH401      0.0199
      3  C3       -26.3850  -39.7510    6.0140 C.3   401  SLH401      0.0017
      4  N4       -27.7460  -39.6810   -1.2620 N.pl3 401  SLH401     -0.2371
      5  C5       -25.4480  -41.1230    7.9230 C.3   401  SLH401      0.0000
      6  C6       -25.4980  -42.2860    6.9740 C.3   401  SLH401      0.0001
      7  C9       -24.9790  -42.6800    3.2270 C.3   401  SLH401      0.0927
      8  C11      -21.3630  -42.9890    2.0240 C.3   401  SLH401      0.1432
      9  C13      -19.9570  -40.8700    1.8190 C.ar  401  SLH401      0.0817
     10  C14      -20.1810  -40.5040    0.5320 C.ar  401  SLH401      0.1154
     11  C15      -18.3960  -39.5170    1.1820 C.ar  401  SLH401      0.1986
     12  O1       -20.6500  -45.1290    1.6000 O.2   401  SLH401     -0.2868
     13  C16      -20.4150  -44.1390    2.2410 C.2   401  SLH401      0.2248
     14  C12      -20.7750  -41.7600    2.6940 C.3   401  SLH401      0.0728
     15  N3       -18.8600  -40.2360    2.1940 N.ar  401  SLH401     -0.2268
     16  N2       -19.2110  -39.6700    0.1560 N.ar  401  SLH401     -0.2212
     17  N1       -22.6550  -43.4010    2.6210 N.3   401  SLH401     -0.2094
     18  C10      -23.5680  -42.2810    2.8640 C.3   401  SLH401      0.1089
     19  C8       -25.1290  -43.0080    4.7000 C.3   401  SLH401      0.0213
     20  C7       -25.1570  -41.8170    5.5930 C.3   401  SLH401      0.0033
     21  C4       -26.4250  -40.0440    7.4960 C.3   401  SLH401      0.0001
     22  N        -25.7760  -41.5400    2.7980 N.am  401  SLH401     -0.2797
     23  C        -26.1660  -41.4860    1.5270 C.2   401  SLH401      0.2274
     24  O        -25.9340  -42.3440    0.7310 O.2   401  SLH401     -0.2748
     25  C17      -26.9200  -40.2580    1.0410 C.3   401  SLH401      0.1085
     26  C18      -26.6110  -40.0000   -0.4280 C.3   401  SLH401      0.1218
     27  C19      -28.1020  -40.4650   -2.3190 C.ar  401  SLH401      0.0653
     28  C24      -27.4140  -41.6440   -2.6240 C.ar  401  SLH401      0.0161
     29  C23      -27.8170  -42.4200   -3.7070 C.ar  401  SLH401      0.0013
     30  C22      -28.9020  -42.0280   -4.4820 C.ar  401  SLH401      0.0001
     31  C21      -29.5920  -40.8620   -4.1910 C.ar  401  SLH401      0.0013
     32  C20      -29.1790  -40.1000   -3.1130 C.ar  401  SLH401      0.0161
@<TRIPOS>BOND
     1    30    31   ar
     2    30    29   ar
     3    31    32   ar
     4    29    28   ar
     5    32    27   ar
     6    28    27   ar
     7    27     4    1
     8     4    26    1
     9    26    25    1
    10    16    10   ar
    11    16    11   ar
    12    10     9   ar
    13    24    23    2
    14    25    23    1
    15    11    15   ar
    16    23    22   am
    17    12    13    2
    18     9    15   ar
    19     9    14    1
    20     8    13    1
    21     8    17    1
    22     8    14    1
    23    17    18    1
    24    22     7    1
    25    22     1    1
    26    18     7    1
    27     7    19    1
    28     1     2    1
    29    19    20    1
    30     2    20    1
    31     2     3    1
    32    20     6    1
    33     3    21    1
    34     6     5    1
    35    21     5    1
