W48
  -OEChem-02242320043D

 69 71  0     1  0  0  0  0  0999 V2000
    1.1640    0.5100   -0.5320 C   0  0  0  0  0  0  0  0  0  0  0  0
    3.4720    1.2300   -0.8410 C   0  0  1  0  0  0  0  0  0  0  0  0
    4.6970    1.3290    0.0710 C   0  0  0  0  0  0  0  0  0  0  0  0
    5.4790    2.0710    2.3310 C   0  0  0  0  0  0  0  0  0  0  0  0
    4.3170    2.0650    1.3570 C   0  0  1  0  0  0  0  0  0  0  0  0
    4.0770    3.5350    1.0790 C   0  0  0  0  0  0  0  0  0  0  0  0
    3.8850    0.6360   -2.1880 C   0  0  1  0  0  0  0  0  0  0  0  0
    2.4660    0.3670   -0.2150 N   0  0  0  0  0  0  0  0  0  0  0  0
    0.1300   -0.3770    0.1120 C   0  0  2  0  0  0  0  0  0  0  0  0
    0.4330   -1.8390   -0.2220 C   0  0  0  0  0  0  0  0  0  0  0  0
    4.9640    4.2020    1.7870 C   0  0  0  0  0  0  0  0  0  0  0  0
    0.8240    1.3570   -1.3310 O   0  0  0  0  0  0  0  0  0  0  0  0
   -1.0520   -4.9770    2.3610 C   0  0  0  0  0  0  0  0  0  0  0  0
   -0.5410   -2.7470    0.5310 C   0  0  0  0  0  0  0  0  0  0  0  0
   -1.2720   -3.5250    2.7900 C   0  0  0  0  0  0  0  0  0  0  0  0
   -0.3200   -4.1990    0.1020 C   0  0  0  0  0  0  0  0  0  0  0  0
   -1.2940   -5.1070    0.8560 C   0  0  0  0  0  0  0  0  0  0  0  0
   -0.2980   -2.6170    2.0360 C   0  0  0  0  0  0  0  0  0  0  0  0
   -2.2940   -0.2870    0.3460 C   0  0  0  0  0  0  0  0  0  0  0  0
   -4.6490   -0.2750    0.7320 C   0  0  0  0  0  0  0  0  0  0  0  0
   -5.9220    0.1550    0.0510 C   0  0  0  0  0  0  0  0  0  0  0  0
   -6.5950   -0.7250   -0.7750 C   0  0  0  0  0  0  0  0  0  0  0  0
   -7.7640   -0.3320   -1.4010 C   0  0  0  0  0  0  0  0  0  0  0  0
   -8.2590    0.9430   -1.2010 C   0  0  0  0  0  0  0  0  0  0  0  0
   -7.5850    1.8250   -0.3750 C   0  0  0  0  0  0  0  0  0  0  0  0
   -6.4190    1.4290    0.2550 C   0  0  0  0  0  0  0  0  0  0  0  0
   -8.2070    3.4270   -0.1240 Cl  0  0  0  0  0  0  0  0  0  0  0  0
   -1.1990   -0.0250   -0.3950 N   0  0  0  0  0  0  0  0  0  0  0  0
    5.7880    3.3690    2.5220 N   0  0  0  0  0  0  0  0  0  0  0  0
    6.0160    1.1080    2.8360 O   0  0  0  0  0  0  0  0  0  0  0  0
    4.9440    1.4160   -2.7480 O   0  0  0  0  0  0  0  0  0  0  0  0
   -3.5150    0.0360   -0.1190 O   0  0  0  0  0  0  0  0  0  0  0  0
   -2.1790   -0.8140    1.4350 O   0  0  0  0  0  0  0  0  0  0  0  0
    3.0520    2.2240   -0.9950 H   0  0  0  0  0  0  0  0  0  0  0  0
    5.0490    0.3270    0.3160 H   0  0  0  0  0  0  0  0  0  0  0  0
    5.4870    1.8770   -0.4420 H   0  0  0  0  0  0  0  0  0  0  0  0
    3.4380    1.6100    1.8120 H   0  0  0  0  0  0  0  0  0  0  0  0
    3.3250    3.9540    0.4260 H   0  0  0  0  0  0  0  0  0  0  0  0
    3.0320    0.6420   -2.8660 H   0  0  0  0  0  0  0  0  0  0  0  0
    2.7380   -0.3070    0.4280 H   0  0  0  0  0  0  0  0  0  0  0  0
    0.1550   -0.2390    1.1930 H   0  0  0  0  0  0  0  0  0  0  0  0
    0.3210   -1.9970   -1.2950 H   0  0  0  0  0  0  0  0  0  0  0  0
    1.4550   -2.0750    0.0750 H   0  0  0  0  0  0  0  0  0  0  0  0
    5.0390    5.2790    1.7940 H   0  0  0  0  0  0  0  0  0  0  0  0
   -0.0280   -5.2720    2.5910 H   0  0  0  0  0  0  0  0  0  0  0  0
   -1.7460   -5.6240    2.8980 H   0  0  0  0  0  0  0  0  0  0  0  0
   -1.5650   -2.4510    0.3020 H   0  0  0  0  0  0  0  0  0  0  0  0
   -2.2960   -3.2300    2.5600 H   0  0  0  0  0  0  0  0  0  0  0  0
   -1.0990   -3.4330    3.8620 H   0  0  0  0  0  0  0  0  0  0  0  0
   -0.4930   -4.2910   -0.9700 H   0  0  0  0  0  0  0  0  0  0  0  0
    0.7030   -4.4940    0.3320 H   0  0  0  0  0  0  0  0  0  0  0  0
   -1.1370   -6.1410    0.5510 H   0  0  0  0  0  0  0  0  0  0  0  0
   -2.3180   -4.8120    0.6260 H   0  0  0  0  0  0  0  0  0  0  0  0
    0.7250   -2.9120    2.2660 H   0  0  0  0  0  0  0  0  0  0  0  0
   -0.4560   -1.5830    2.3420 H   0  0  0  0  0  0  0  0  0  0  0  0
   -4.5470    0.2540    1.6800 H   0  0  0  0  0  0  0  0  0  0  0  0
   -4.6810   -1.3490    0.9170 H   0  0  0  0  0  0  0  0  0  0  0  0
   -6.2080   -1.7220   -0.9320 H   0  0  0  0  0  0  0  0  0  0  0  0
   -8.2900   -1.0200   -2.0450 H   0  0  0  0  0  0  0  0  0  0  0  0
   -9.1710    1.2510   -1.6900 H   0  0  0  0  0  0  0  0  0  0  0  0
   -5.8930    2.1170    0.9000 H   0  0  0  0  0  0  0  0  0  0  0  0
   -1.2910    0.3960   -1.2640 H   0  0  0  0  0  0  0  0  0  0  0  0
    6.5000    3.6800    3.1020 H   0  0  0  0  0  0  0  0  0  0  0  0
    4.4530   -1.0700   -1.9490 S   0  0  0  0  0  0  0  0  0  0  0  0
    4.5350   -1.7490   -3.1950 O   0  0  0  0  0  0  0  0  0  0  0  0
    5.5280   -1.1120   -1.0200 O   0  0  0  0  0  0  0  0  0  0  0  0
    3.3040   -1.7550   -1.2230 O   0  0  0  0  0  0  0  0  0  0  0  0
    4.7110    2.3410   -2.9040 H   0  0  0  0  0  0  0  0  0  0  0  0
    3.4640   -2.6870   -1.0240 H   0  0  0  0  0  0  0  0  0  0  0  0
 11 29  1  0  0  0  0
  4 29  1  0  0  0  0
  4 30  2  0  0  0  0
  6 11  2  0  0  0  0
  4  5  1  0  0  0  0
  3  5  1  0  0  0  0
  2  3  1  0  0  0  0
  5  6  1  0  0  0  0
  7 31  1  0  0  0  0
  2  7  1  0  0  0  0
 23 24  2  0  0  0  0
 24 25  1  0  0  0  0
  2  8  1  0  0  0  0
 22 23  1  0  0  0  0
 25 27  1  0  0  0  0
 25 26  2  0  0  0  0
 21 22  2  0  0  0  0
  1  8  1  0  0  0  0
 21 26  1  0  0  0  0
 20 21  1  0  0  0  0
  1 12  2  0  0  0  0
  1  9  1  0  0  0  0
 19 33  2  0  0  0  0
 20 32  1  0  0  0  0
 19 32  1  0  0  0  0
 19 28  1  0  0  0  0
  9 28  1  0  0  0  0
  9 10  1  0  0  0  0
 10 14  1  0  0  0  0
 14 18  1  0  0  0  0
 15 18  1  0  0  0  0
 14 16  1  0  0  0  0
 16 17  1  0  0  0  0
 13 15  1  0  0  0  0
 13 17  1  0  0  0  0
  2 34  1  0  0  0  0
  3 35  1  0  0  0  0
  3 36  1  0  0  0  0
  5 37  1  0  0  0  0
  6 38  1  0  0  0  0
  7 39  1  0  0  0  0
  8 40  1  0  0  0  0
  9 41  1  0  0  0  0
 10 42  1  0  0  0  0
 10 43  1  0  0  0  0
 11 44  1  0  0  0  0
 13 45  1  0  0  0  0
 13 46  1  0  0  0  0
 14 47  1  0  0  0  0
 15 48  1  0  0  0  0
 15 49  1  0  0  0  0
 16 50  1  0  0  0  0
 16 51  1  0  0  0  0
 17 52  1  0  0  0  0
 17 53  1  0  0  0  0
 18 54  1  0  0  0  0
 18 55  1  0  0  0  0
 20 56  1  0  0  0  0
 20 57  1  0  0  0  0
 22 58  1  0  0  0  0
 23 59  1  0  0  0  0
 24 60  1  0  0  0  0
 26 61  1  0  0  0  0
 28 62  1  0  0  0  0
 29 63  1  0  0  0  0
  7 64  1  0  0  0  0
 64 65  2  0  0  0  0
 64 66  2  0  0  0  0
 64 67  1  0  0  0  0
 31 68  1  0  0  0  0
 67 69  1  0  0  0  0
M  END
> <OPENEYE_ISO_SMILES>
c1cc(cc(c1)Cl)COC(=O)N[C@@H](CC2CCCCC2)C(=O)N[C@@H](C[C@@H]3C=CNC3=O)[C@@H](O)S(=O)(=O)O

> <OPENEYE_INCHI>
InChI=1S/C24H32ClN3O8S/c25-18-8-4-7-16(11-18)14-36-24(32)28-19(12-15-5-2-1-3-6-15)22(30)27-20(23(31)37(33,34)35)13-17-9-10-26-21(17)29/h4,7-11,15,17,19-20,23,31H,1-3,5-6,12-14H2,(H,26,29)(H,27,30)(H,28,32)(H,33,34,35)/t17-,19-,20-,23-/m0/s1

> <OPENEYE_INCHIKEY>
DXPXOBKGTKNZHP-UDSSINMLSA-N

> <FORMULA>
C24H32ClN3O8S

$$$$
