YSG
  -OEChem-02242320043D

 51 54  0     0  0  0  0  0  0999 V2000
   -4.2940   -3.2570    1.4360 N   0  0  0  0  0  0  0  0  0  0  0  0
    0.1280    0.1130   -0.2510 C   0  0  0  0  0  0  0  0  0  0  0  0
   -1.5350    1.8320   -0.1470 N   0  0  0  0  0  0  0  0  0  0  0  0
    1.9690   -1.0030   -1.5070 C   0  0  0  0  0  0  0  0  0  0  0  0
    3.2970   -1.3630   -1.6380 C   0  0  0  0  0  0  0  0  0  0  0  0
    4.2130   -1.0080   -0.6630 C   0  0  0  0  0  0  0  0  0  0  0  0
    6.0590   -0.3520    1.1980 C   0  0  0  0  0  0  0  0  0  0  0  0
   -0.2420    1.4790   -0.2690 C   0  0  0  0  0  0  0  0  0  0  0  0
    8.3700   -0.3150    2.1460 C   0  0  0  0  0  0  0  0  0  0  0  0
    2.4730    0.0730    0.5920 C   0  0  0  0  0  0  0  0  0  0  0  0
   -0.8530   -0.8520   -0.1060 C   0  0  0  0  0  0  0  0  0  0  0  0
   -2.1970   -0.4450    0.0180 C   0  0  0  0  0  0  0  0  0  0  0  0
   -3.2710   -1.4570    0.1740 C   0  0  0  0  0  0  0  0  0  0  0  0
   -3.2980   -2.3530    1.3380 C   0  0  0  0  0  0  0  0  0  0  0  0
   -4.2560   -1.5790   -0.7590 C   0  0  0  0  0  0  0  0  0  0  0  0
   -5.2370   -3.3350    0.4810 C   0  0  0  0  0  0  0  0  0  0  0  0
   -2.5080    0.8950   -0.0050 C   0  0  0  0  0  0  0  0  0  0  0  0
   -1.8830    3.1890   -0.1670 C   0  0  0  0  0  0  0  0  0  0  0  0
   -2.2400    3.8090   -1.3620 C   0  0  0  0  0  0  0  0  0  0  0  0
   -2.5760    5.1520   -1.3320 C   0  0  0  0  0  0  0  0  0  0  0  0
   -2.5480    5.8280   -0.1250 C   0  0  0  0  0  0  0  0  0  0  0  0
   -1.8840    3.9330    1.0050 C   0  0  0  0  0  0  0  0  0  0  0  0
    1.5510   -0.2800   -0.3910 C   0  0  0  0  0  0  0  0  0  0  0  0
    3.8030   -0.2880    0.4510 C   0  0  0  0  0  0  0  0  0  0  0  0
    6.9210    0.1240    2.3690 C   0  0  0  0  0  0  0  0  0  0  0  0
   -5.2290   -2.5240   -0.5900 N   0  0  0  0  0  0  0  0  0  0  0  0
   -2.2060    5.2110    0.9890 N   0  0  0  0  0  0  0  0  0  0  0  0
    0.6130    2.3390   -0.3950 O   0  0  0  0  0  0  0  0  0  0  0  0
    4.7060    0.0580    1.4060 O   0  0  0  0  0  0  0  0  0  0  0  0
   -2.4380   -2.2800    2.1970 O   0  0  0  0  0  0  0  0  0  0  0  0
   -6.1220   -4.1620    0.5900 O   0  0  0  0  0  0  0  0  0  0  0  0
    3.8170   -2.2640   -3.0270 Cl  0  0  0  0  0  0  0  0  0  0  0  0
   -4.3280   -3.8570    2.1980 H   0  0  0  0  0  0  0  0  0  0  0  0
    1.2580   -1.2780   -2.2710 H   0  0  0  0  0  0  0  0  0  0  0  0
    5.2490   -1.2920   -0.7690 H   0  0  0  0  0  0  0  0  0  0  0  0
    6.4320    0.0830    0.2710 H   0  0  0  0  0  0  0  0  0  0  0  0
    6.1030   -1.4390    1.1330 H   0  0  0  0  0  0  0  0  0  0  0  0
    8.4140   -1.4020    2.0820 H   0  0  0  0  0  0  0  0  0  0  0  0
    8.7430    0.1200    1.2190 H   0  0  0  0  0  0  0  0  0  0  0  0
    8.9850    0.0250    2.9800 H   0  0  0  0  0  0  0  0  0  0  0  0
    2.1540    0.6340    1.4580 H   0  0  0  0  0  0  0  0  0  0  0  0
   -0.5940   -1.9000   -0.0900 H   0  0  0  0  0  0  0  0  0  0  0  0
   -4.2660   -0.9370   -1.6270 H   0  0  0  0  0  0  0  0  0  0  0  0
   -3.5380    1.2050    0.0910 H   0  0  0  0  0  0  0  0  0  0  0  0
   -2.2530    3.2570   -2.2900 H   0  0  0  0  0  0  0  0  0  0  0  0
   -2.8570    5.6660   -2.2390 H   0  0  0  0  0  0  0  0  0  0  0  0
   -2.8100    6.8750   -0.0960 H   0  0  0  0  0  0  0  0  0  0  0  0
   -1.6130    3.4620    1.9380 H   0  0  0  0  0  0  0  0  0  0  0  0
    6.8770    1.2120    2.4340 H   0  0  0  0  0  0  0  0  0  0  0  0
    6.5480   -0.3100    3.2960 H   0  0  0  0  0  0  0  0  0  0  0  0
   -5.9300   -2.6090   -1.2550 H   0  0  0  0  0  0  0  0  0  0  0  0
  9 25  1  0  0  0  0
  7 25  1  0  0  0  0
  7 29  1  0  0  0  0
 24 29  1  0  0  0  0
  6 24  2  0  0  0  0
  5  6  1  0  0  0  0
 10 24  1  0  0  0  0
  5 32  1  0  0  0  0
  4  5  2  0  0  0  0
 10 23  2  0  0  0  0
  4 23  1  0  0  0  0
  2 23  1  0  0  0  0
  8 28  2  0  0  0  0
  2  8  1  0  0  0  0
  2 11  2  0  0  0  0
  3  8  1  0  0  0  0
 11 12  1  0  0  0  0
  3 18  1  0  0  0  0
  3 17  1  0  0  0  0
 18 22  2  0  0  0  0
 18 19  1  0  0  0  0
 22 27  1  0  0  0  0
 12 17  2  0  0  0  0
 12 13  1  0  0  0  0
 19 20  2  0  0  0  0
 21 27  2  0  0  0  0
 13 15  2  0  0  0  0
 15 26  1  0  0  0  0
 20 21  1  0  0  0  0
 13 14  1  0  0  0  0
 16 26  1  0  0  0  0
 14 30  2  0  0  0  0
  1 14  1  0  0  0  0
  1 16  1  0  0  0  0
 16 31  2  0  0  0  0
  1 33  1  0  0  0  0
  4 34  1  0  0  0  0
  6 35  1  0  0  0  0
  7 36  1  0  0  0  0
  7 37  1  0  0  0  0
  9 38  1  0  0  0  0
  9 39  1  0  0  0  0
  9 40  1  0  0  0  0
 10 41  1  0  0  0  0
 11 42  1  0  0  0  0
 15 43  1  0  0  0  0
 17 44  1  0  0  0  0
 19 45  1  0  0  0  0
 20 46  1  0  0  0  0
 21 47  1  0  0  0  0
 22 48  1  0  0  0  0
 25 49  1  0  0  0  0
 25 50  1  0  0  0  0
 26 51  1  0  0  0  0
M  END
> <OPENEYE_ISO_SMILES>
CCCOc1cc(cc(c1)Cl)c2cc(cn(c2=O)c3cccnc3)c4c[nH]c(=O)[nH]c4=O

> <OPENEYE_INCHI>
InChI=1S/C23H19ClN4O4/c1-2-6-32-18-8-14(7-16(24)10-18)19-9-15(20-12-26-23(31)27-21(20)29)13-28(22(19)30)17-4-3-5-25-11-17/h3-5,7-13H,2,6H2,1H3,(H2,26,27,29,31)

> <OPENEYE_INCHIKEY>
GJCBTWHGKCNYAB-UHFFFAOYSA-N

> <FORMULA>
C23H19ClN4O4

$$$$
