@<TRIPOS>MOLECULE
/home/pku/3cl/gett_pdb/5DGJ/5DGJ_mol2/ligand/5DGJ_V64.pdb
 34 34 0 0 0
SMALL
GASTEIGER

@<TRIPOS>ATOM
      1  O42       17.2770  -57.2450  140.4980 O.2   201  V64201     -0.2246
      2  C36       16.5900  -56.5160  139.8540 C.2   201  V64201      0.4213
      3  O37       16.2640  -55.1990  140.2540 O.3   201  V64201     -0.4408
      4  C38       16.6270  -54.7600  141.5610 C.3   201  V64201      0.1379
      5  C39       15.9100  -55.6000  142.6460 C.3   201  V64201      0.0437
      6  C40       18.1660  -54.8410  141.7290 C.3   201  V64201      0.0437
      7  C41       16.2000  -53.2740  141.6730 C.3   201  V64201      0.0437
      8  O01       17.5320  -56.3410  136.4060 O.2   201  V64201     -0.2715
      9  C02       17.6300  -57.4470  136.8430 C.2   201  V64201      0.2617
     10  N18       14.2840  -54.1290  132.9170 N.am  201  V64201     -0.2035
     11  C27       16.6380  -58.0230  137.8330 C.3   201  V64201      0.1761
     12  C28       15.5630  -58.7790  137.0480 C.3   201  V64201      0.0312
     13  C29       14.7240  -59.6820  137.9840 C.3   201  V64201      0.0023
     14  N35       16.0180  -56.9560  138.5750 N.am  201  V64201     -0.1611
     15  C5        13.2810  -53.0700  132.7480 C.3   201  V64201      0.1385
     16  N13       19.4390  -56.2520  133.5510 N.am  201  V64201     -0.2030
     17  C14       18.9000  -55.7820  132.2850 C.3   201  V64201      0.1287
     18  C15       18.0310  -54.5440  132.5410 C.3   201  V64201      0.0340
     19  C16       16.6770  -54.9400  133.1440 C.3   201  V64201      0.0887
     20  C17       15.6910  -53.7780  132.9570 C.2   201  V64201      0.2415
     21  O23       16.0500  -52.6430  132.8400 O.2   201  V64201     -0.2733
     22  C24       20.0580  -55.4750  131.3480 C.3   201  V64201      0.2036
     23  O25       20.6860  -56.5880  130.9790 O.3   201  V64201     -0.2185
     24  N03       18.7250  -58.3310  136.4410 N.am  201  V64201     -0.1963
     25  C04       19.6740  -57.8110  135.4910 C.3   201  V64201      0.1728
     26  C12       18.9440  -57.4530  134.1970 C.2   201  V64201      0.2612
     27  O26       18.0560  -58.1030  133.7190 O.2   201  V64201     -0.2715
     28  C05       20.7420  -58.8510  135.1140 C.3   201  V64201      0.0311
     29  C06       21.7480  -59.1920  136.2640 C.3   201  V64201      0.0022
     30  C07       22.4800  -57.9160  136.7110 C.3   201  V64201      0.0001
     31  C08       23.6330  -58.2330  137.6650 C.3   201  V64201      0.0000
     32  C09       24.6330  -59.2000  137.0270 C.3   201  V64201      0.0000
     33  C10       23.9600  -60.5080  136.5840 C.3   201  V64201      0.0000
     34  C11       22.7010  -60.2790  135.7240 C.3   201  V64201      0.0001
@<TRIPOS>BOND
     1    23    22    1
     2    22    17    1
     3    17    18    1
     4    17    16    1
     5    18    19    1
     6    15    10    1
     7    21    20    2
     8    10    20   am
     9    20    19    1
    10    16    26   am
    11    27    26    2
    12    26    25    1
    13    28    25    1
    14    28    29    1
    15    25    24    1
    16    34    29    1
    17    34    33    1
    18    29    30    1
    19     8     9    2
    20    24     9   am
    21    33    32    1
    22    30    31    1
    23     9    11    1
    24    32    31    1
    25    12    11    1
    26    12    13    1
    27    11    14    1
    28    14     2   am
    29     2     3    1
    30     2     1    2
    31     3     4    1
    32     4     7    1
    33     4     6    1
    34     4     5    1
