1LQ
  -OEChem-02242320003D

 18 19  0     0  0  0  0  0  0999 V2000
    1.7890    1.2280   -0.0020 C   0  0  0  0  0  0  0  0  0  0  0  0
    2.7060    0.2200   -0.0010 C   0  0  0  0  0  0  0  0  0  0  0  0
    2.3070   -1.1140    0.0010 C   0  0  0  0  0  0  0  0  0  0  0  0
    0.9850   -1.4490    0.0010 C   0  0  0  0  0  0  0  0  0  0  0  0
    0.0180   -0.4380   -0.0000 C   0  0  0  0  0  0  0  0  0  0  0  0
    0.4220    0.9190   -0.0020 C   0  0  0  0  0  0  0  0  0  0  0  0
   -0.5220    1.8720    0.0020 N   0  0  0  0  0  0  0  0  0  0  0  0
   -1.7940    1.5490    0.0020 C   0  0  0  0  0  0  0  0  0  0  0  0
   -2.2180    0.2960   -0.0020 N   0  0  0  0  0  0  0  0  0  0  0  0
   -1.3690   -0.7230   -0.0010 C   0  0  0  0  0  0  0  0  0  0  0  0
   -1.8250   -2.0240    0.0000 N   0  0  0  0  0  0  0  0  0  0  0  0
    2.1130    2.2580    0.0020 H   0  0  0  0  0  0  0  0  0  0  0  0
    3.7590    0.4600   -0.0010 H   0  0  0  0  0  0  0  0  0  0  0  0
    3.0550   -1.8930    0.0020 H   0  0  0  0  0  0  0  0  0  0  0  0
    0.6870   -2.4870    0.0020 H   0  0  0  0  0  0  0  0  0  0  0  0
   -2.5270    2.3420    0.0050 H   0  0  0  0  0  0  0  0  0  0  0  0
   -1.1920   -2.7600    0.0010 H   0  0  0  0  0  0  0  0  0  0  0  0
   -2.7780   -2.2040   -0.0010 H   0  0  0  0  0  0  0  0  0  0  0  0
  3  4  2  0  0  0  0
  2  3  1  0  0  0  0
  4  5  1  0  0  0  0
  1  2  2  0  0  0  0
 10 11  1  0  0  0  0
  5 10  2  0  0  0  0
  5  6  1  0  0  0  0
  1  6  1  0  0  0  0
  9 10  1  0  0  0  0
  6  7  2  0  0  0  0
  8  9  2  0  0  0  0
  7  8  1  0  0  0  0
  1 12  1  0  0  0  0
  2 13  1  0  0  0  0
  3 14  1  0  0  0  0
  4 15  1  0  0  0  0
  8 16  1  0  0  0  0
 11 17  1  0  0  0  0
 11 18  1  0  0  0  0
M  END
> <OPENEYE_ISO_SMILES>
c1ccc2c(c1)c(ncn2)N

> <OPENEYE_INCHI>
InChI=1S/C8H7N3/c9-8-6-3-1-2-4-7(6)10-5-11-8/h1-5H,(H2,9,10,11)

> <OPENEYE_INCHIKEY>
DRYRBWIFRVMRPV-UHFFFAOYSA-N

> <FORMULA>
C8H7N3

$$$$
