@<TRIPOS>MOLECULE
/home/pku/3cl/gett_pdb/6WCF/6WCF_mol2/ligand/6WCF_MES.pdb
 25 25 0 0 0
SMALL
GASTEIGER

@<TRIPOS>ATOM
      1  O1        -5.2550    3.0170   -3.2730 O.3   201  MES201     -0.3834
      2  C2        -6.4400    2.3000   -2.9250 C.3   201  MES201      0.0329
      3  C3        -7.6480    2.8530   -3.6400 C.3   201  MES201     -0.0664
      4  N4        -7.4410    2.9240   -5.0820 N.4   201  MES201      0.3837
      5  C5        -6.1920    3.6910   -5.3430 C.3   201  MES201     -0.0664
      6  C6        -5.0290    3.0150   -4.6750 C.3   201  MES201      0.0329
      7  C7        -8.5720    3.4820   -5.8320 C.3   201  MES201     -0.0701
      8  C8        -9.8230    2.6270   -5.6670 C.3   201  MES201      0.0581
      9  S        -10.9090    2.6320   -7.0280 S.3   201  MES201      0.0101
     10  O1S      -10.1980    2.0100   -8.1550 O.3   201  MES201     -0.0702
     11  O2S      -11.3090    4.0040   -7.3070 O.3   201  MES201     -0.0702
     12  O3S      -12.0170    1.8310   -6.5570 O.3   201  MES201     -0.0702
     13  H21       -6.5970    2.3630   -1.8460 H     201  MES201      0.0541
     14  H22       -6.3150    1.2470   -3.1850 H     201  MES201      0.0541
     15  H31       -7.8660    3.8520   -3.2580 H     201  MES201      0.0081
     16  H32       -8.5110    2.2180   -3.4320 H     201  MES201      0.0081
     17  HN4       -7.3580    1.9770   -5.4210 H     201  MES201     -0.0816
     18  H51       -6.0150    3.7540   -6.4180 H     201  MES201      0.0081
     19  H52       -6.2970    4.7090   -4.9600 H     201  MES201      0.0081
     20  H61       -4.1030    3.5450   -4.9070 H     201  MES201      0.0541
     21  H62       -4.9310    1.9910   -5.0380 H     201  MES201      0.0541
     22  H71       -8.7770    4.4950   -5.4800 H     201  MES201      0.0075
     23  H72       -8.3110    3.5420   -6.8910 H     201  MES201      0.0075
     24  H81      -10.3690    2.9800   -4.7900 H     201  MES201      0.0486
     25  H82       -9.5140    1.5970   -5.4770 H     201  MES201      0.0486
@<TRIPOS>BOND
     1    10     9    1
     2    11     9    1
     3     9    12    1
     4     9     8    1
     5    23     7    1
     6    18     5    1
     7     7     8    1
     8     7    22    1
     9     7     4    1
    10     8    25    1
    11     8    24    1
    12    17     4    1
    13     5     4    1
    14     5    19    1
    15     5     6    1
    16     4     3    1
    17    21     6    1
    18    20     6    1
    19     6     1    1
    20     3    16    1
    21     3    15    1
    22     3     2    1
    23     1     2    1
    24    14     2    1
    25     2    13    1
