NTG
  -OEChem-02242320033D

 28 29  0     1  0  0  0  0  0999 V2000
   -5.6030    0.0560    0.2990 N   0  0  0  0  0  0  0  0  0  0  0  0
    1.0460   -0.0190   -0.3910 N   0  0  1  0  0  0  0  0  0  0  0  0
   -1.0410   -1.2390   -0.3990 C   0  0  0  0  0  0  0  0  0  0  0  0
   -0.3390   -0.0430   -0.2550 C   0  0  0  0  0  0  0  0  0  0  0  0
   -1.0400    1.1270    0.0280 C   0  0  0  0  0  0  0  0  0  0  0  0
    1.5470    1.2800   -0.2080 C   0  0  0  0  0  0  0  0  0  0  0  0
    3.0520    1.3580   -0.5470 C   0  0  0  0  0  0  0  0  0  0  0  0
    2.9920   -1.4410   -0.1640 C   0  0  0  0  0  0  0  0  0  0  0  0
   -4.4740    0.0280    0.1800 C   0  0  0  0  0  0  0  0  0  0  0  0
    1.6800   -1.0440    0.4620 C   0  0  0  0  0  0  0  0  0  0  0  0
   -3.0500   -0.0070    0.0290 C   0  0  0  0  0  0  0  0  0  0  0  0
   -2.4160   -1.2170   -0.2550 C   0  0  0  0  0  0  0  0  0  0  0  0
    3.8430    0.7300    0.5720 C   0  0  0  0  0  0  0  0  0  0  0  0
   -2.3480    1.1130    0.1590 N   0  0  0  0  0  0  0  0  0  0  0  0
    4.0910   -0.6750    0.3620 O   0  0  0  0  0  0  0  0  0  0  0  0
   -0.5240   -2.1610   -0.6220 H   0  0  0  0  0  0  0  0  0  0  0  0
   -0.5030    2.0570    0.1410 H   0  0  0  0  0  0  0  0  0  0  0  0
    1.0010    1.9670   -0.8540 H   0  0  0  0  0  0  0  0  0  0  0  0
    1.4000    1.5760    0.8310 H   0  0  0  0  0  0  0  0  0  0  0  0
    3.2440    0.8210   -1.4750 H   0  0  0  0  0  0  0  0  0  0  0  0
    3.3460    2.4010   -0.6600 H   0  0  0  0  0  0  0  0  0  0  0  0
    3.1720   -2.4990    0.0300 H   0  0  0  0  0  0  0  0  0  0  0  0
    2.9330   -1.2830   -1.2410 H   0  0  0  0  0  0  0  0  0  0  0  0
    1.8570   -0.6330    1.4560 H   0  0  0  0  0  0  0  0  0  0  0  0
    1.0290   -1.9150    0.5330 H   0  0  0  0  0  0  0  0  0  0  0  0
   -2.9910   -2.1250   -0.3600 H   0  0  0  0  0  0  0  0  0  0  0  0
    4.7990    1.2470    0.6590 H   0  0  0  0  0  0  0  0  0  0  0  0
    3.2920    0.8530    1.5040 H   0  0  0  0  0  0  0  0  0  0  0  0
  8 10  1  0  0  0  0
  2 10  1  0  0  0  0
  8 15  1  0  0  0  0
  2  4  1  0  0  0  0
  2  6  1  0  0  0  0
  3  4  2  0  0  0  0
  3 12  1  0  0  0  0
  4  5  1  0  0  0  0
  6  7  1  0  0  0  0
  7 13  1  0  0  0  0
 11 12  2  0  0  0  0
 13 15  1  0  0  0  0
  5 14  2  0  0  0  0
 11 14  1  0  0  0  0
  9 11  1  0  0  0  0
  1  9  3  0  0  0  0
  3 16  1  0  0  0  0
  5 17  1  0  0  0  0
  6 18  1  0  0  0  0
  6 19  1  0  0  0  0
  7 20  1  0  0  0  0
  7 21  1  0  0  0  0
  8 22  1  0  0  0  0
  8 23  1  0  0  0  0
 10 24  1  0  0  0  0
 10 25  1  0  0  0  0
 12 26  1  0  0  0  0
 13 27  1  0  0  0  0
 13 28  1  0  0  0  0
M  END
> <OPENEYE_ISO_SMILES>
c1cc(ncc1[N@]2CCCOCC2)C#N

> <OPENEYE_INCHI>
InChI=1S/C11H13N3O/c12-8-10-2-3-11(9-13-10)14-4-1-6-15-7-5-14/h2-3,9H,1,4-7H2

> <OPENEYE_INCHIKEY>
QPJKHSFVBDONPD-UHFFFAOYSA-N

> <FORMULA>
C11H13N3O

$$$$
