91I
  -OEChem-02242320013D

 68 71  0     1  0  0  0  0  0999 V2000
   -1.4800    1.0050   -0.3060 N   0  0  0  0  0  0  0  0  0  0  0  0
    6.1830    0.4660    1.6280 N   0  0  0  0  0  0  0  0  0  0  0  0
   -1.1560    3.3450    0.0840 C   0  0  1  0  0  0  0  0  0  0  0  0
   -1.4080    3.5770   -1.4100 C   0  0  0  0  0  0  0  0  0  0  0  0
   -2.4850    2.7250   -2.0840 C   0  0  0  0  0  0  0  0  0  0  0  0
   -1.2780    5.0090   -1.9330 C   0  0  0  0  0  0  0  0  0  0  0  0
   -1.7030    2.0490    0.7210 C   0  0  0  0  0  0  0  0  0  0  0  0
   -3.6230   -0.1760    0.0560 C   0  0  0  0  0  0  0  0  0  0  0  0
   -5.7610   -2.3320    1.3310 C   0  0  0  0  0  0  0  0  0  0  0  0
   -8.1040   -1.8590    1.4740 C   0  0  0  0  0  0  0  0  0  0  0  0
   -6.8050   -0.9400   -0.3150 C   0  0  0  0  0  0  0  0  0  0  0  0
    5.0060    0.9380    2.0850 C   0  0  0  0  0  0  0  0  0  0  0  0
    4.2750   -0.6010   -0.3210 C   0  0  0  0  0  0  0  0  0  0  0  0
    3.5860   -1.8330   -0.9110 C   0  0  2  0  0  0  0  0  0  0  0  0
    3.3430   -4.1640   -0.4010 C   0  0  0  0  0  0  0  0  0  0  0  0
    0.6920    0.5940    1.2100 O   0  0  0  0  0  0  0  0  0  0  0  0
    0.9430    0.8430    0.0500 C   0  0  0  0  0  0  0  0  0  0  0  0
   -0.1480    1.3260   -0.8710 C   0  0  2  0  0  0  0  0  0  0  0  0
   -0.1270    2.8660   -0.9690 C   0  0  2  0  0  0  0  0  0  0  0  0
   -2.2990   -0.0100   -0.6450 C   0  0  0  0  0  0  0  0  0  0  0  0
   -4.3520   -1.3940   -0.5130 C   0  0  0  0  0  0  0  0  0  0  0  0
   -5.6760   -1.5600    0.1870 C   0  0  0  0  0  0  0  0  0  0  0  0
   -6.9760   -2.4830    1.9730 C   0  0  0  0  0  0  0  0  0  0  0  0
   -8.0180   -1.0820    0.3340 C   0  0  0  0  0  0  0  0  0  0  0  0
   -1.9710   -0.7900   -1.5130 O   0  0  0  0  0  0  0  0  0  0  0  0
    2.1980    0.6870   -0.4160 N   0  0  0  0  0  0  0  0  0  0  0  0
    3.2590    0.2180    0.4780 C   0  0  2  0  0  0  0  0  0  0  0  0
    3.9600    1.4210    1.1130 C   0  0  1  0  0  0  0  0  0  0  0  0
    3.0000    2.2200    1.8060 O   0  0  0  0  0  0  0  0  0  0  0  0
    4.7880    0.9730    3.2770 O   0  0  0  0  0  0  0  0  0  0  0  0
    3.0940   -2.7700    0.2170 C   0  0  0  0  0  0  0  0  0  0  0  0
    4.4220   -3.9730   -1.3770 N   0  0  0  0  0  0  0  0  0  0  0  0
    4.5770   -2.6740   -1.6860 C   0  0  0  0  0  0  0  0  0  0  0  0
    5.3920   -2.2390   -2.4710 O   0  0  0  0  0  0  0  0  0  0  0  0
    6.8810    0.2150    2.2530 H   0  0  0  0  0  0  0  0  0  0  0  0
    6.3330    0.3780    0.6740 H   0  0  0  0  0  0  0  0  0  0  0  0
   -0.9510    4.1860    0.7470 H   0  0  0  0  0  0  0  0  0  0  0  0
   -3.3310    3.3560   -2.3560 H   0  0  0  0  0  0  0  0  0  0  0  0
   -2.0740    2.2620   -2.9810 H   0  0  0  0  0  0  0  0  0  0  0  0
   -2.8190    1.9490   -1.3950 H   0  0  0  0  0  0  0  0  0  0  0  0
   -0.8640    5.6450   -1.1500 H   0  0  0  0  0  0  0  0  0  0  0  0
   -0.6150    5.0210   -2.7980 H   0  0  0  0  0  0  0  0  0  0  0  0
   -2.2600    5.3810   -2.2220 H   0  0  0  0  0  0  0  0  0  0  0  0
   -2.7670    2.1510    0.9340 H   0  0  0  0  0  0  0  0  0  0  0  0
   -1.1530    1.8110    1.6310 H   0  0  0  0  0  0  0  0  0  0  0  0
   -3.4540   -0.3190    1.1230 H   0  0  0  0  0  0  0  0  0  0  0  0
   -4.2300    0.7160   -0.1000 H   0  0  0  0  0  0  0  0  0  0  0  0
   -4.8800   -2.8190    1.7200 H   0  0  0  0  0  0  0  0  0  0  0  0
   -9.0530   -1.9780    1.9760 H   0  0  0  0  0  0  0  0  0  0  0  0
   -6.7380   -0.3330   -1.2060 H   0  0  0  0  0  0  0  0  0  0  0  0
    5.0840   -0.9170    0.3370 H   0  0  0  0  0  0  0  0  0  0  0  0
    4.6800    0.0100   -1.1280 H   0  0  0  0  0  0  0  0  0  0  0  0
    2.7540   -1.5350   -1.5490 H   0  0  0  0  0  0  0  0  0  0  0  0
    3.6520   -4.8680    0.3710 H   0  0  0  0  0  0  0  0  0  0  0  0
    2.4410   -4.5220   -0.8980 H   0  0  0  0  0  0  0  0  0  0  0  0
   -0.0370    0.8780   -1.8580 H   0  0  0  0  0  0  0  0  0  0  0  0
    0.8350    3.3620   -1.0990 H   0  0  0  0  0  0  0  0  0  0  0  0
   -4.5210   -1.2510   -1.5810 H   0  0  0  0  0  0  0  0  0  0  0  0
   -3.7450   -2.2860   -0.3580 H   0  0  0  0  0  0  0  0  0  0  0  0
   -7.0440   -3.0900    2.8640 H   0  0  0  0  0  0  0  0  0  0  0  0
   -8.8970   -0.5870   -0.0500 H   0  0  0  0  0  0  0  0  0  0  0  0
    2.3990    0.8860   -1.3440 H   0  0  0  0  0  0  0  0  0  0  0  0
    2.8260   -0.4050    1.2610 H   0  0  0  0  0  0  0  0  0  0  0  0
    4.4350    2.0170    0.3340 H   0  0  0  0  0  0  0  0  0  0  0  0
    2.2950    2.5660    1.2420 H   0  0  0  0  0  0  0  0  0  0  0  0
    3.6850   -2.6340    1.1230 H   0  0  0  0  0  0  0  0  0  0  0  0
    2.0340   -2.6150    0.4180 H   0  0  0  0  0  0  0  0  0  0  0  0
    4.9550   -4.6910   -1.7510 H   0  0  0  0  0  0  0  0  0  0  0  0
  2 12  1  0  0  0  0
 12 30  2  0  0  0  0
 12 28  1  0  0  0  0
 28 29  1  0  0  0  0
 27 28  1  0  0  0  0
  4  6  1  0  0  0  0
 26 27  1  0  0  0  0
 13 27  1  0  0  0  0
  4 19  1  0  0  0  0
  3 19  1  0  0  0  0
 18 19  1  0  0  0  0
  3  4  1  0  0  0  0
  4  5  1  0  0  0  0
 17 26  1  0  0  0  0
 13 14  1  0  0  0  0
  3  7  1  0  0  0  0
 16 17  2  0  0  0  0
 17 18  1  0  0  0  0
  1 18  1  0  0  0  0
 14 31  1  0  0  0  0
 14 33  1  0  0  0  0
  1  7  1  0  0  0  0
 15 31  1  0  0  0  0
  1 20  1  0  0  0  0
 33 34  2  0  0  0  0
 32 33  1  0  0  0  0
 15 32  1  0  0  0  0
 20 25  2  0  0  0  0
  8 20  1  0  0  0  0
  8 21  1  0  0  0  0
 21 22  1  0  0  0  0
 11 22  2  0  0  0  0
  9 22  1  0  0  0  0
 11 24  1  0  0  0  0
  9 23  2  0  0  0  0
 10 24  2  0  0  0  0
 10 23  1  0  0  0  0
  2 35  1  0  0  0  0
  2 36  1  0  0  0  0
  3 37  1  0  0  0  0
  5 38  1  0  0  0  0
  5 39  1  0  0  0  0
  5 40  1  0  0  0  0
  6 41  1  0  0  0  0
  6 42  1  0  0  0  0
  6 43  1  0  0  0  0
  7 44  1  0  0  0  0
  7 45  1  0  0  0  0
  8 46  1  0  0  0  0
  8 47  1  0  0  0  0
  9 48  1  0  0  0  0
 10 49  1  0  0  0  0
 11 50  1  0  0  0  0
 13 51  1  0  0  0  0
 13 52  1  0  0  0  0
 14 53  1  0  0  0  0
 15 54  1  0  0  0  0
 15 55  1  0  0  0  0
 18 56  1  0  0  0  0
 19 57  1  0  0  0  0
 21 58  1  0  0  0  0
 21 59  1  0  0  0  0
 23 60  1  0  0  0  0
 24 61  1  0  0  0  0
 26 62  1  0  0  0  0
 27 63  1  0  0  0  0
 28 64  1  0  0  0  0
 29 65  1  0  0  0  0
 31 66  1  0  0  0  0
 31 67  1  0  0  0  0
 32 68  1  0  0  0  0
M  END
> <OPENEYE_ISO_SMILES>
CC1([C@@H]2[C@H]1[C@H](N(C2)C(=O)CCc3ccccc3)C(=O)N[C@@H](C[C@@H]4CCNC4=O)[C@H](C(=O)N)O)C

> <OPENEYE_INCHI>
InChI=1S/C25H34N4O5/c1-25(2)16-13-29(18(30)9-8-14-6-4-3-5-7-14)20(19(16)25)24(34)28-17(21(31)22(26)32)12-15-10-11-27-23(15)33/h3-7,15-17,19-21,31H,8-13H2,1-2H3,(H2,26,32)(H,27,33)(H,28,34)/t15-,16-,17-,19-,20-,21+/m0/s1

> <OPENEYE_INCHIKEY>
RGRBMZCTKPAORA-RZCQQDKOSA-N

> <FORMULA>
C25H34N4O5

$$$$
