@<TRIPOS>MOLECULE
/home/pku/3cl/gett_pdb/6YZ1/6YZ1_mol2/ligand/6YZ1_SFG.pdb
 49 51 0 0 0
SMALL
GASTEIGER

@<TRIPOS>ATOM
      1  N         82.1820   19.0160   24.5040 N.3   301  SFG301     -0.3183
      2  CA        80.8760   18.7090   25.1250 C.3   301  SFG301      0.1077
      3  C         79.8270   19.5870   24.5030 C.2   301  SFG301      0.3724
      4  O         80.0570   20.0910   23.3810 O.co2 301  SFG301     -0.2446
      5  OXT       78.7600   19.7790   25.1230 O.co2 301  SFG301     -0.2446
      6  CB        80.9530   18.9040   26.6380 C.3   301  SFG301     -0.0258
      7  CG        82.1460   18.1340   27.2070 C.3   301  SFG301     -0.0357
      8  CD        81.8470   17.5490   28.5870 C.3   301  SFG301      0.0073
      9  NE        81.3480   18.6280   29.4610 N.3   301  SFG301     -0.3272
     10  C5'       83.0640   16.9150   29.2710 C.3   301  SFG301     -0.0087
     11  C4'       83.3630   15.5700   28.6040 C.3   301  SFG301      0.0911
     12  O4'       84.7200   15.1320   28.8380 O.3   301  SFG301     -0.3479
     13  C3'       82.4770   14.3810   29.0060 C.3   301  SFG301      0.1114
     14  O3'       81.5690   14.0460   27.9500 O.3   301  SFG301     -0.3865
     15  C2'       83.4140   13.1980   29.2640 C.3   301  SFG301      0.1285
     16  O2'       82.9970   12.0330   28.5380 O.3   301  SFG301     -0.3847
     17  C1'       84.7930   13.6920   28.7970 C.3   301  SFG301      0.1664
     18  N9        85.9310   13.0760   29.5210 N.ar  301  SFG301     -0.2877
     19  C8        86.3070   13.2450   30.7920 C.ar  301  SFG301      0.0999
     20  N7        87.3960   12.4730   30.9980 N.ar  301  SFG301     -0.2346
     21  C5        87.6910   11.8270   29.8480 C.ar  301  SFG301      0.1287
     22  C6        88.6760   10.9250   29.4710 C.3   301  SFG301      0.2004
     23  N6        89.6150   10.5140   30.3560 N.3   301  SFG301     -0.2985
     24  N1        88.6950   10.4520   28.2060 N.2   301  SFG301     -0.2420
     25  C2        87.7770   10.8420   27.3120 C.2   301  SFG301      0.1049
     26  N3        86.8180   11.7120   27.6540 N.pl3 301  SFG301     -0.1840
     27  C4        86.7590   12.2140   28.9160 C.ar  301  SFG301      0.1528
     28  HN1       82.1960   18.6890   23.5240 H     301  SFG301      0.1190
     29  HN2       82.3340   20.0390   24.5160 H     301  SFG301      0.1190
     30  HA        80.5980   17.6590   24.9590 H     301  SFG301      0.0575
     31  HB1       80.0310   18.5500   27.1030 H     301  SFG301      0.0286
     32  HB2       81.0580   19.9670   26.8670 H     301  SFG301      0.0286
     33  HG1       83.0050   18.8040   27.2800 H     301  SFG301      0.0281
     34  HG2       82.4100   17.3240   26.5230 H     301  SFG301      0.0281
     35  HD        81.1170   16.7440   28.4220 H     301  SFG301      0.0459
     36 HNE1       80.3270   18.7330   29.3660 H     301  SFG301      0.1185
     37 HNE2       81.8020   19.5150   29.1900 H     301  SFG301      0.1185
     38 H5'1       82.8600   16.7680   30.3340 H     301  SFG301      0.0306
     39 H5'2       83.9280   17.5770   29.1840 H     301  SFG301      0.0306
     40  H4'       83.1650   15.8120   27.5500 H     301  SFG301      0.0624
     41  H3'       81.8780   14.6300   29.8930 H     301  SFG301      0.0647
     42 HO3'       80.9900   14.7990   27.7720 H     301  SFG301      0.2100
     43  H2'       83.4190   12.8880   30.3180 H     301  SFG301      0.0665
     44 HO2'       82.0670   11.8510   28.7270 H     301  SFG301      0.2101
     45  H1'       85.0030   13.3580   27.7710 H     301  SFG301      0.0866
     46  H8        85.8270   13.8840   31.5230 H     301  SFG301      0.1030
     47 HN61       90.3260    9.8570   30.0660 H     301  SFG301      0.1209
     48 HN62       89.6070   10.8640   31.3020 H     301  SFG301      0.1209
     49  H2        87.8110   10.4500   26.3030 H     301  SFG301      0.1015
@<TRIPOS>BOND
     1     4     3   ar
     2    28     1    1
     3     3     5   ar
     4     3     2    1
     5     1    29    1
     6     1     2    1
     7    30     2    1
     8     2     6    1
     9    49    25    1
    10    34     7    1
    11     6    32    1
    12     6    31    1
    13     6     7    1
    14     7    33    1
    15     7     8    1
    16    25    26    1
    17    25    24    2
    18    40    11    1
    19    26    27    1
    20    45    17    1
    21    42    14    1
    22    14    13    1
    23    24    22    1
    24    35     8    1
    25    16    44    1
    26    16    15    1
    27     8    10    1
    28     8     9    1
    29    11    12    1
    30    11    13    1
    31    11    10    1
    32    17    12    1
    33    17    15    1
    34    17    18    1
    35    27    18   ar
    36    27    21   ar
    37    13    15    1
    38    13    41    1
    39    39    10    1
    40    37     9    1
    41    15    43    1
    42    10    38    1
    43    36     9    1
    44    22    21    1
    45    22    23    1
    46    18    19   ar
    47    21    20   ar
    48    47    23    1
    49    23    48    1
    50    19    20   ar
    51    19    46    1
