RK0
  -OEChem-02242320043D

 37 38  0     0  0  0  0  0  0999 V2000
   -3.6430   -1.4210    0.7360 C   0  0  0  0  0  0  0  0  0  0  0  0
   -2.6100    0.7080    1.1010 C   0  0  0  0  0  0  0  0  0  0  0  0
   -3.2950   -0.3900    1.5850 C   0  0  0  0  0  0  0  0  0  0  0  0
   -2.2660    0.7820   -0.2440 C   0  0  0  0  0  0  0  0  0  0  0  0
   -3.3030   -1.3570   -0.6170 C   0  0  0  0  0  0  0  0  0  0  0  0
   -4.3850   -2.6190    1.2700 C   0  0  0  0  0  0  0  0  0  0  0  0
    5.1850   -3.2780    0.4710 C   0  0  0  0  0  0  0  0  0  0  0  0
    4.3590   -2.0860    0.0630 C   0  0  0  0  0  0  0  0  0  0  0  0
    2.5430   -0.6070    0.4370 C   0  0  0  0  0  0  0  0  0  0  0  0
    1.9330    1.1300   -0.8210 C   0  0  0  0  0  0  0  0  0  0  0  0
    2.0620    2.0580   -2.0010 C   0  0  0  0  0  0  0  0  0  0  0  0
    0.9750    1.2600    0.0990 C   0  0  0  0  0  0  0  0  0  0  0  0
   -3.6630   -2.4250   -1.5000 C   0  0  0  0  0  0  0  0  0  0  0  0
   -2.6110   -0.2480   -1.1050 C   0  0  0  0  0  0  0  0  0  0  0  0
    3.3060   -1.7070    0.8140 N   0  0  0  0  0  0  0  0  0  0  0  0
    2.7580    0.1200   -0.6140 N   0  0  0  0  0  0  0  0  0  0  0  0
   -1.5730    1.8950   -0.7270 N   0  0  0  0  0  0  0  0  0  0  0  0
   -3.9490   -3.2720   -2.2010 N   0  0  0  0  0  0  0  0  0  0  0  0
    4.6410   -1.4670   -0.9410 O   0  0  0  0  0  0  0  0  0  0  0  0
   -0.7050    2.6180    1.4670 O   0  0  0  0  0  0  0  0  0  0  0  0
    0.2200    3.5880   -0.6420 O   0  0  0  0  0  0  0  0  0  0  0  0
    1.1810   -0.0220    1.2890 S   0  0  0  0  0  0  0  0  0  0  0  0
   -0.2810    2.4960    0.1160 S   0  0  0  0  0  0  0  0  0  0  0  0
   -2.3400    1.5120    1.7700 H   0  0  0  0  0  0  0  0  0  0  0  0
   -3.5590   -0.4420    2.6310 H   0  0  0  0  0  0  0  0  0  0  0  0
   -3.6700   -3.3720    1.6010 H   0  0  0  0  0  0  0  0  0  0  0  0
   -5.0090   -2.3150    2.1100 H   0  0  0  0  0  0  0  0  0  0  0  0
   -5.0140   -3.0370    0.4830 H   0  0  0  0  0  0  0  0  0  0  0  0
    4.7820   -3.7010    1.3910 H   0  0  0  0  0  0  0  0  0  0  0  0
    5.1540   -4.0290   -0.3180 H   0  0  0  0  0  0  0  0  0  0  0  0
    6.2160   -2.9660    0.6360 H   0  0  0  0  0  0  0  0  0  0  0  0
    1.4800    1.6680   -2.8350 H   0  0  0  0  0  0  0  0  0  0  0  0
    1.6900    3.0460   -1.7280 H   0  0  0  0  0  0  0  0  0  0  0  0
    3.1100    2.1320   -2.2920 H   0  0  0  0  0  0  0  0  0  0  0  0
   -2.3450   -0.1920   -2.1510 H   0  0  0  0  0  0  0  0  0  0  0  0
    3.0790   -2.2020    1.6170 H   0  0  0  0  0  0  0  0  0  0  0  0
   -1.8480    2.3150   -1.5570 H   0  0  0  0  0  0  0  0  0  0  0  0
  1  6  1  0  0  0  0
 13 18  3  0  0  0  0
  5 13  1  0  0  0  0
  1  5  2  0  0  0  0
  1  3  1  0  0  0  0
  5 14  1  0  0  0  0
  2  3  2  0  0  0  0
  4 14  2  0  0  0  0
  2  4  1  0  0  0  0
  4 17  1  0  0  0  0
 20 23  2  0  0  0  0
 17 23  1  0  0  0  0
 21 23  2  0  0  0  0
 12 23  1  0  0  0  0
 12 22  1  0  0  0  0
  9 22  1  0  0  0  0
 10 12  2  0  0  0  0
  8 19  2  0  0  0  0
 10 11  1  0  0  0  0
 10 16  1  0  0  0  0
  8 15  1  0  0  0  0
  7  8  1  0  0  0  0
  9 15  1  0  0  0  0
  9 16  2  0  0  0  0
  2 24  1  0  0  0  0
  3 25  1  0  0  0  0
  6 26  1  0  0  0  0
  6 27  1  0  0  0  0
  6 28  1  0  0  0  0
  7 29  1  0  0  0  0
  7 30  1  0  0  0  0
  7 31  1  0  0  0  0
 11 32  1  0  0  0  0
 11 33  1  0  0  0  0
 11 34  1  0  0  0  0
 14 35  1  0  0  0  0
 15 36  1  0  0  0  0
 17 37  1  0  0  0  0
M  END
> <OPENEYE_ISO_SMILES>
Cc1ccc(cc1C#N)NS(=O)(=O)c2c(nc(s2)NC(=O)C)C

> <OPENEYE_INCHI>
InChI=1S/C14H14N4O3S2/c1-8-4-5-12(6-11(8)7-15)18-23(20,21)13-9(2)16-14(22-13)17-10(3)19/h4-6,18H,1-3H3,(H,16,17,19)

> <OPENEYE_INCHIKEY>
BORZWBYDXGSJEW-UHFFFAOYSA-N

> <FORMULA>
C14H14N4O3S2

$$$$
