@<TRIPOS>MOLECULE
/home/pku/3cl/gett_pdb/8EYJ/8EYJ_mol2/ligand/8EYJ_4WI.pdb
 68 70 0 0 0
SMALL
GASTEIGER

@<TRIPOS>ATOM
      1  C8        13.2520   10.0650   -6.8210 C.2   401  4WI401      0.2162
      2  C3        11.6470   12.6430   -2.7720 C.2   401  4WI401      0.0750
      3  C1        15.0720   11.7490   -2.4600 C.2   401  4WI401      0.2344
      4  C13       17.3620    9.9420   -3.2410 C.2   401  4WI401      0.2371
      5  C21       19.9240    7.8220   -3.0360 C.2   401  4WI401      0.3179
      6  C6        14.3590   12.1450   -6.3570 C.3   401  4WI401     -0.0262
      7  C7        14.5150   11.7550   -7.8310 C.3   401  4WI401      0.0123
      8  C10       18.2920   11.3180   -1.3430 C.3   401  4WI401      0.0192
      9  C5        13.6880   10.9570   -5.6680 C.3   401  4WI401      0.0390
     10  C9        15.8800   10.8120   -1.5710 C.3   401  4WI401      0.1058
     11  C11       17.5660   11.7780   -0.0950 C.3   401  4WI401     -0.0142
     12  C12       16.1000   11.4260   -0.2080 C.3   401  4WI401     -0.0037
     13  C18       16.9660   10.7750    0.8570 C.3   401  4WI401     -0.0250
     14  C19       16.8030   11.2370    2.2790 C.3   401  4WI401     -0.0592
     15  C20       17.4220    9.3380    0.7860 C.3   401  4WI401     -0.0592
     16  C16       18.1400   10.0000   -6.2570 C.3   401  4WI401     -0.0579
     17  C17       18.7690   12.0420   -4.9590 C.3   401  4WI401     -0.0579
     18  C23       20.5170   10.3430   -5.5600 C.3   401  4WI401     -0.0579
     19  C4        12.5420   11.3110   -4.7050 C.3   401  4WI401     -0.0177
     20  C2        12.9050   12.1840   -3.4980 C.3   401  4WI401      0.0672
     21  C14       18.7710    9.8080   -3.8180 C.3   401  4WI401      0.1047
     22  C22       20.0430    6.2980   -3.0870 C.3   401  4WI401      0.4694
     23  C15       19.0440   10.5400   -5.1460 C.3   401  4WI401     -0.0108
     24  N5        11.1160   13.8030   -2.8850 N.2   401  4WI401     -0.3003
     25  N2        13.8260   10.4760   -7.9450 N.am  401  4WI401     -0.3151
     26  N3        17.2300   10.6560   -2.1220 N.am  401  4WI401     -0.2878
     27  N1        13.7720   11.4740   -2.5680 N.am  401  4WI401     -0.3054
     28  N4        19.0920    8.3960   -3.9070 N.am  401  4WI401     -0.2962
     29  O1        12.4830    9.1000   -6.7330 O.2   401  4WI401     -0.2755
     30  O2        15.6240   12.6740   -3.0540 O.2   401  4WI401     -0.2737
     31  O3        16.3690    9.4420   -3.7850 O.2   401  4WI401     -0.2735
     32  O4        20.5850    8.4300   -2.2210 O.2   401  4WI401     -0.2660
     33  F1        18.8650    5.7100   -3.2240 F     401  4WI401     -0.1620
     34  F2        20.5810    5.8260   -1.9680 F     401  4WI401     -0.1620
     35  F3        20.7890    5.8970   -4.1130 F     401  4WI401     -0.1620
     36  H5        13.8070   12.9490   -6.2740 H     401  4WI401      0.0288
     37  H6        15.2340   12.3260   -5.9570 H     401  4WI401      0.0288
     38  H7        15.4640   11.6650   -8.0720 H     401  4WI401      0.0462
     39  H8        14.1050   12.4290   -8.4180 H     401  4WI401      0.0462
     40  H11       19.0110   10.6900   -1.1200 H     401  4WI401      0.0468
     41  H12       18.6690   12.0780   -1.8330 H     401  4WI401      0.0468
     42  H4        14.3790   10.4680   -5.1570 H     401  4WI401      0.0395
     43  H10       15.4320    9.9360   -1.4960 H     401  4WI401      0.0600
     44  H13       17.7990   12.6860    0.2840 H     401  4WI401      0.0325
     45  H14       15.4660   12.1580    0.0940 H     401  4WI401      0.0332
     46  H23       16.1390   11.9390    2.3160 H     401  4WI401      0.0235
     47  H24       17.6480   11.5780    2.6100 H     401  4WI401      0.0235
     48  H25       16.5160   10.4950    2.8350 H     401  4WI401      0.0235
     49  H26       17.0840    8.9300   -0.0240 H     401  4WI401      0.0235
     50  H27       17.0910    8.8510    1.5550 H     401  4WI401      0.0235
     51  H28       18.3910    9.3050    0.7800 H     401  4WI401      0.0235
     52  H17       17.5750    9.2930   -5.9050 H     401  4WI401      0.0236
     53  H19       17.5790   10.7150   -6.6040 H     401  4WI401      0.0236
     54  H18       18.6840    9.6420   -6.9800 H     401  4WI401      0.0236
     55  H20       18.4870   12.2140   -4.0450 H     401  4WI401      0.0236
     56  H21       18.0670   12.3280   -5.5680 H     401  4WI401      0.0236
     57  H22       19.5780   12.5500   -5.1430 H     401  4WI401      0.0236
     58  H29       20.9750    9.8020   -4.8940 H     401  4WI401      0.0236
     59  H30       20.9600   11.2060   -5.6280 H     401  4WI401      0.0236
     60  H31       20.5610    9.8930   -6.4210 H     401  4WI401      0.0236
     61  H2        11.8440   11.7710   -5.2170 H     401  4WI401      0.0294
     62  H3        12.1520   10.4750   -4.3720 H     401  4WI401      0.0294
     63  H32       13.3800   12.9870   -3.8250 H     401  4WI401      0.0564
     64  H15       19.4020   10.2040   -3.1710 H     401  4WI401      0.0600
     65  H36       10.3820   13.8890   -2.3810 H     401  4WI401      0.1865
     66  H9        13.7800   10.0200   -8.6860 H     401  4WI401      0.1487
     67  H1        13.4250   10.8530   -2.0690 H     401  4WI401      0.1494
     68  H16       18.7410    7.9000   -4.5350 H     401  4WI401      0.1497
@<TRIPOS>BOND
     1    66    25    1
     2    39     7    1
     3    38     7    1
     4    25     7    1
     5    25     1   am
     6     7     6    1
     7    54    16    1
     8     1    29    2
     9     1     9    1
    10    53    16    1
    11    60    18    1
    12     6    36    1
    13     6    37    1
    14     6     9    1
    15    16    52    1
    16    16    23    1
    17     9    42    1
    18     9    19    1
    19    59    18    1
    20    56    17    1
    21    18    23    1
    22    18    58    1
    23    61    19    1
    24    23    17    1
    25    23    21    1
    26    57    17    1
    27    17    55    1
    28    19    62    1
    29    19    20    1
    30    68    28    1
    31    35    22    1
    32    28    21    1
    33    28     5   am
    34    63    20    1
    35    21     4    1
    36    21    64    1
    37    31     4    2
    38    20     2    1
    39    20    27    1
    40     4    26   am
    41    33    22    1
    42    22     5    1
    43    22    34    1
    44    30     3    2
    45     5    32    2
    46    24     2    2
    47    24    65    1
    48    27     3   am
    49    27    67    1
    50     3    10    1
    51    26    10    1
    52    26     8    1
    53    41     8    1
    54    10    43    1
    55    10    12    1
    56     8    40    1
    57     8    11    1
    58    12    11    1
    59    12    45    1
    60    12    13    1
    61    11    44    1
    62    11    13    1
    63    49    15    1
    64    51    15    1
    65    15    13    1
    66    15    50    1
    67    13    14    1
    68    14    46    1
    69    14    47    1
    70    14    48    1
