T54
  -OEChem-02242320043D

 26 27  0     1  0  0  0  0  0999 V2000
    1.6060   -0.8450    1.2810 C   0  0  0  0  0  0  0  0  0  0  0  0
    1.0430   -0.2530   -0.8590 C   0  0  0  0  0  0  0  0  0  0  0  0
   -0.9190    1.4560    0.1170 C   0  0  0  0  0  0  0  0  0  0  0  0
   -1.6310    0.3140    0.7940 C   0  0  1  0  0  0  0  0  0  0  0  0
   -3.0060    0.0880    0.1400 C   0  0  0  0  0  0  0  0  0  0  0  0
   -2.9950   -1.3480   -0.4240 C   0  0  0  0  0  0  0  0  0  0  0  0
   -1.4930   -1.6660   -0.6240 C   0  0  0  0  0  0  0  0  0  0  0  0
   -0.8340   -0.9930    0.6050 C   0  0  1  0  0  0  0  0  0  0  0  0
    0.6160   -0.6900    0.3260 C   0  0  0  0  0  0  0  0  0  0  0  0
    2.8360   -0.5290    0.8730 C   0  0  0  0  0  0  0  0  0  0  0  0
   -0.0600    2.2240    0.8160 N   0  0  0  0  0  0  0  0  0  0  0  0
   -1.1190    1.6840   -1.0580 O   0  0  0  0  0  0  0  0  0  0  0  0
    2.7830   -0.0020   -0.8040 S   0  0  0  0  0  0  0  0  0  0  0  0
    1.3980   -1.1920    2.2830 H   0  0  0  0  0  0  0  0  0  0  0  0
    0.4150   -0.0750   -1.7200 H   0  0  0  0  0  0  0  0  0  0  0  0
   -1.7530    0.5270    1.8560 H   0  0  0  0  0  0  0  0  0  0  0  0
   -3.7950    0.1910    0.8840 H   0  0  0  0  0  0  0  0  0  0  0  0
   -3.1580    0.8050   -0.6670 H   0  0  0  0  0  0  0  0  0  0  0  0
   -3.4400   -2.0420    0.2900 H   0  0  0  0  0  0  0  0  0  0  0  0
   -3.5260   -1.3890   -1.3750 H   0  0  0  0  0  0  0  0  0  0  0  0
   -1.3210   -2.7430   -0.6140 H   0  0  0  0  0  0  0  0  0  0  0  0
   -1.1250   -1.2270   -1.5520 H   0  0  0  0  0  0  0  0  0  0  0  0
   -0.9290   -1.6290    1.4850 H   0  0  0  0  0  0  0  0  0  0  0  0
    3.7280   -0.5870    1.4790 H   0  0  0  0  0  0  0  0  0  0  0  0
    0.1000    2.0410    1.7550 H   0  0  0  0  0  0  0  0  0  0  0  0
    0.3990    2.9590    0.3800 H   0  0  0  0  0  0  0  0  0  0  0  0
  3 11  1  0  0  0  0
  3 12  2  0  0  0  0
  3  4  1  0  0  0  0
  4  5  1  0  0  0  0
  5  6  1  0  0  0  0
  6  7  1  0  0  0  0
  7  8  1  0  0  0  0
  8  9  1  0  0  0  0
  1  9  1  0  0  0  0
  1 10  2  0  0  0  0
 10 13  1  0  0  0  0
  2 13  1  0  0  0  0
  4  8  1  0  0  0  0
  2  9  2  0  0  0  0
  1 14  1  0  0  0  0
  2 15  1  0  0  0  0
  4 16  1  0  0  0  0
  5 17  1  0  0  0  0
  5 18  1  0  0  0  0
  6 19  1  0  0  0  0
  6 20  1  0  0  0  0
  7 21  1  0  0  0  0
  7 22  1  0  0  0  0
  8 23  1  0  0  0  0
 10 24  1  0  0  0  0
 11 25  1  0  0  0  0
 11 26  1  0  0  0  0
M  END
> <OPENEYE_ISO_SMILES>
c1cscc1[C@@H]2CCC[C@@H]2C(=O)N

> <OPENEYE_INCHI>
InChI=1S/C10H13NOS/c11-10(12)9-3-1-2-8(9)7-4-5-13-6-7/h4-6,8-9H,1-3H2,(H2,11,12)/t8-,9-/m0/s1

> <OPENEYE_INCHIKEY>
GQGCCJATUDDTKK-IUCAKERBSA-N

> <FORMULA>
C10H13NOS

$$$$
