@<TRIPOS>MOLECULE
/home/pku/3cl/gett_pdb/5SQE/5SQE_mol2/ligand/5SQE_QR0.pdb
 45 48 0 0 0
SMALL
GASTEIGER

@<TRIPOS>ATOM
      1  C18      -50.1470  -28.9870    6.4810 C.ar  201  QR0201      0.0469
      2  C16      -49.9540  -28.9510    4.0920 C.ar  201  QR0201     -0.0478
      3  C17      -50.7500  -28.9090    5.2300 C.ar  201  QR0201     -0.0385
      4  C15      -48.5770  -29.0920    4.2150 C.ar  201  QR0201      0.0368
      5  C14      -47.7250  -29.1450    2.9490 C.2   201  QR0201      0.2445
      6  C12      -45.3910  -29.6120    2.0380 C.3   201  QR0201      0.0580
      7  C11      -45.4610  -30.9620    1.2760 C.ar  201  QR0201     -0.0199
      8  C10      -46.4220  -31.9250    1.1090 C.ar  201  QR0201     -0.0563
      9  C02      -43.6070  -30.6130    3.4730 C.2   201  QR0201      0.0926
     10  C03      -43.9290  -29.5840    2.3750 C.3   201  QR0201      0.0343
     11  C04      -43.3890  -29.9130    1.0200 C.3   201  QR0201     -0.0132
     12  C05      -44.2480  -31.1120    0.6110 C.ar  201  QR0201     -0.0003
     13  C06      -43.9980  -32.2180   -0.1940 C.ar  201  QR0201      0.1204
     14  C08      -44.9700  -33.1870   -0.3610 C.ar  201  QR0201     -0.0199
     15  C09      -46.1940  -33.0340    0.2990 C.ar  201  QR0201     -0.0580
     16  C21      -52.8470  -30.3570    7.0060 C.ar  201  QR0201      0.0449
     17  C22      -54.2170  -30.1610    7.0020 C.ar  201  QR0201      0.0472
     18  C24      -53.3050  -28.3940    7.7850 C.ar  201  QR0201      0.1134
     19  C25      -48.7730  -29.1020    6.5990 C.ar  201  QR0201     -0.0385
     20  C26      -47.9740  -29.1560    5.4670 C.ar  201  QR0201     -0.0478
     21  N13      -46.3280  -29.5200    3.1100 N.am  201  QR0201     -0.3039
     22  N19      -50.9560  -28.9460    7.6780 N.pl3 201  QR0201     -0.2525
     23  N20      -52.3280  -29.2310    7.5000 N.ar  201  QR0201     -0.2563
     24  N23      -54.4610  -28.9450    7.5000 N.ar  201  QR0201     -0.2425
     25  O01      -42.6040  -31.3590    3.4000 O.co2 201  QR0201     -0.8473
     26  O07      -42.7960  -32.3110   -0.8810 O.3   201  QR0201     -0.5065
     27  O27      -48.2120  -28.8580    1.8920 O.2   201  QR0201     -0.2702
     28  O28      -44.3580  -30.6980    4.4600 O.co2 201  QR0201     -0.3086
     29 H161      -50.4030  -28.9540    3.0910 H     201  QR0201      0.0626
     30 H171      -51.8440  -28.8660    5.1260 H     201  QR0201      0.0637
     31 H121      -45.5890  -28.8270    1.3200 H     201  QR0201      0.0555
     32 H101      -47.3640  -31.8130    1.6040 H     201  QR0201      0.0621
     33 H031      -43.6110  -28.6150    2.7050 H     201  QR0201      0.0393
     34 H042      -42.3510  -30.2250    1.0570 H     201  QR0201      0.0322
     35 H041      -43.5560  -29.0930    0.3280 H     201  QR0201      0.0322
     36 H081      -44.7890  -34.0360   -1.0120 H     201  QR0201      0.0654
     37 H091      -46.9700  -33.7830    0.1680 H     201  QR0201      0.0619
     38 H211      -52.3160  -31.2410    6.6340 H     201  QR0201      0.0843
     39 H221      -54.9600  -30.8840    6.6390 H     201  QR0201      0.0845
     40 H241      -53.1880  -27.4160    8.2090 H     201  QR0201      0.1045
     41 H251      -48.3350  -29.1570    7.5680 H     201  QR0201      0.0637
     42 H261      -46.8890  -29.2450    5.5440 H     201  QR0201      0.0626
     43 H131      -46.0130  -29.7300    4.0040 H     201  QR0201      0.1496
     44 H191      -50.5410  -29.2490    8.5220 H     201  QR0201      0.1728
     45 H071      -42.9620  -32.6590   -1.7490 H     201  QR0201      0.2921
@<TRIPOS>UNITY_ATOM_ATTR
25 1
charge -1
@<TRIPOS>BOND
     1    45    26    1
     2    36    14    1
     3    26    13    1
     4    14    13   ar
     5    14    15   ar
     6    13    12   ar
     7    37    15    1
     8    15     8   ar
     9    35    11    1
    10    12    11    1
    11    12     7   ar
    12    11    34    1
    13    11    10    1
    14     8     7   ar
    15     8    32    1
    16     7     6    1
    17    31     6    1
    18    27     5    2
    19     6    10    1
    20     6    21    1
    21    10    33    1
    22    10     9    1
    23     5    21   am
    24     5     4    1
    25    29     2    1
    26    21    43    1
    27    25     9   ar
    28     9    28   ar
    29     2     4   ar
    30     2     3   ar
    31     4    20   ar
    32    30     3    1
    33     3     1   ar
    34    20    42    1
    35    20    19   ar
    36     1    19   ar
    37     1    22    1
    38    19    41    1
    39    38    16    1
    40    39    17    1
    41    17    16   ar
    42    17    24   ar
    43    16    23   ar
    44    23    22    1
    45    23    18   ar
    46    24    18   ar
    47    22    44    1
    48    18    40    1
