QMO
  -OEChem-02242320033D

 52 54  0     1  0  0  0  0  0999 V2000
    4.8480    0.3410    0.4680 C   0  0  0  0  0  0  0  0  0  0  0  0
    4.7190   -1.1620    0.5900 C   0  0  0  0  0  0  0  0  0  0  0  0
    3.0620   -2.7640   -0.4090 C   0  0  0  0  0  0  0  0  0  0  0  0
    3.9890   -1.6100   -0.6940 C   0  0  1  0  0  0  0  0  0  0  0  0
    3.1890   -0.3470   -1.0780 C   0  0  2  0  0  0  0  0  0  0  0  0
    0.8360    0.2850   -1.0720 C   0  0  0  0  0  0  0  0  0  0  0  0
    5.6760    1.2320    1.1410 C   0  0  0  0  0  0  0  0  0  0  0  0
   -8.9740   -0.7940    0.6730 C   0  0  0  0  0  0  0  0  0  0  0  0
   -7.8310   -0.0260    0.0060 C   0  0  0  0  0  0  0  0  0  0  0  0
   -5.4220    0.0970    0.3550 C   0  0  0  0  0  0  0  0  0  0  0  0
   -3.0610    0.1300    0.6080 C   0  0  0  0  0  0  0  0  0  0  0  0
   -2.8280    0.8890   -0.5350 C   0  0  0  0  0  0  0  0  0  0  0  0
   -1.5660    0.9420   -1.0820 C   0  0  0  0  0  0  0  0  0  0  0  0
   -0.5180    0.2320   -0.4880 C   0  0  0  0  0  0  0  0  0  0  0  0
    5.6160    2.5870    0.8560 C   0  0  0  0  0  0  0  0  0  0  0  0
    4.7320    3.0520   -0.0980 C   0  0  0  0  0  0  0  0  0  0  0  0
    3.9090    2.1660   -0.7670 C   0  0  0  0  0  0  0  0  0  0  0  0
    3.9700    0.8100   -0.4900 C   0  0  0  0  0  0  0  0  0  0  0  0
   -0.7560   -0.5290    0.6590 C   0  0  0  0  0  0  0  0  0  0  0  0
   -2.0200   -0.5730    1.2040 C   0  0  0  0  0  0  0  0  0  0  0  0
   -8.2620    1.4210   -0.2370 C   0  0  0  0  0  0  0  0  0  0  0  0
   -6.6550   -0.0460    0.8800 N   0  0  0  0  0  0  0  0  0  0  0  0
   -4.3410    0.0790    1.1590 N   0  0  0  0  0  0  0  0  0  0  0  0
    1.8450   -0.4000   -0.4980 N   0  0  0  0  0  0  0  0  0  0  0  0
    1.8740   -2.6450   -0.5940 O   0  0  0  0  0  0  0  0  0  0  0  0
    3.5570   -3.9230    0.0520 O   0  0  0  0  0  0  0  0  0  0  0  0
    6.5450    0.7730    2.0790 O   0  0  0  0  0  0  0  0  0  0  0  0
    1.0420    0.9480   -2.0710 O   0  0  0  0  0  0  0  0  0  0  0  0
   -5.2860    0.2420   -0.8450 O   0  0  0  0  0  0  0  0  0  0  0  0
    5.7050   -1.6230    0.6440 H   0  0  0  0  0  0  0  0  0  0  0  0
    4.1300   -1.4210    1.4700 H   0  0  0  0  0  0  0  0  0  0  0  0
    4.7030   -1.8720   -1.4750 H   0  0  0  0  0  0  0  0  0  0  0  0
    3.1300   -0.2520   -2.1620 H   0  0  0  0  0  0  0  0  0  0  0  0
   -9.8490   -0.7800    0.0220 H   0  0  0  0  0  0  0  0  0  0  0  0
   -8.6670   -1.8250    0.8460 H   0  0  0  0  0  0  0  0  0  0  0  0
   -9.2220   -0.3240    1.6240 H   0  0  0  0  0  0  0  0  0  0  0  0
   -7.5840   -0.4970   -0.9460 H   0  0  0  0  0  0  0  0  0  0  0  0
   -3.6370    1.4370   -0.9940 H   0  0  0  0  0  0  0  0  0  0  0  0
   -1.3850    1.5300   -1.9700 H   0  0  0  0  0  0  0  0  0  0  0  0
    6.2590    3.2790    1.3800 H   0  0  0  0  0  0  0  0  0  0  0  0
    4.6830    4.1070   -0.3210 H   0  0  0  0  0  0  0  0  0  0  0  0
    3.2190    2.5320   -1.5130 H   0  0  0  0  0  0  0  0  0  0  0  0
    0.0510   -1.0790    1.1200 H   0  0  0  0  0  0  0  0  0  0  0  0
   -2.2040   -1.1570    2.0940 H   0  0  0  0  0  0  0  0  0  0  0  0
   -8.5090    1.8920    0.7150 H   0  0  0  0  0  0  0  0  0  0  0  0
   -7.4470    1.9680   -0.7120 H   0  0  0  0  0  0  0  0  0  0  0  0
   -9.1360    1.4360   -0.8870 H   0  0  0  0  0  0  0  0  0  0  0  0
   -6.7640   -0.1610    1.8370 H   0  0  0  0  0  0  0  0  0  0  0  0
   -4.4530    0.0310    2.1210 H   0  0  0  0  0  0  0  0  0  0  0  0
    1.6810   -0.9280    0.2980 H   0  0  0  0  0  0  0  0  0  0  0  0
    2.9240   -4.6350    0.2210 H   0  0  0  0  0  0  0  0  0  0  0  0
    7.4150    0.5360    1.7280 H   0  0  0  0  0  0  0  0  0  0  0  0
  8  9  1  0  0  0  0
 10 22  1  0  0  0  0
 11 23  1  0  0  0  0
 11 12  2  0  0  0  0
 12 13  1  0  0  0  0
 13 14  2  0  0  0  0
  5 24  1  0  0  0  0
  4  5  1  0  0  0  0
  3 25  2  0  0  0  0
  3 26  1  0  0  0  0
  3  4  1  0  0  0  0
  2  4  1  0  0  0  0
  1  2  1  0  0  0  0
  1  7  2  0  0  0  0
  7 27  1  0  0  0  0
  7 15  1  0  0  0  0
 15 16  2  0  0  0  0
 16 17  1  0  0  0  0
 17 18  2  0  0  0  0
  6 24  1  0  0  0  0
  6 28  2  0  0  0  0
  6 14  1  0  0  0  0
 14 19  1  0  0  0  0
 19 20  2  0  0  0  0
 10 23  1  0  0  0  0
 10 29  2  0  0  0  0
  9 22  1  0  0  0  0
  9 21  1  0  0  0  0
 11 20  1  0  0  0  0
  5 18  1  0  0  0  0
  1 18  1  0  0  0  0
  2 30  1  0  0  0  0
  2 31  1  0  0  0  0
  4 32  1  0  0  0  0
  5 33  1  0  0  0  0
  8 34  1  0  0  0  0
  8 35  1  0  0  0  0
  8 36  1  0  0  0  0
  9 37  1  0  0  0  0
 12 38  1  0  0  0  0
 13 39  1  0  0  0  0
 15 40  1  0  0  0  0
 16 41  1  0  0  0  0
 17 42  1  0  0  0  0
 19 43  1  0  0  0  0
 20 44  1  0  0  0  0
 21 45  1  0  0  0  0
 21 46  1  0  0  0  0
 21 47  1  0  0  0  0
 22 48  1  0  0  0  0
 23 49  1  0  0  0  0
 24 50  1  0  0  0  0
 26 51  1  0  0  0  0
 27 52  1  0  0  0  0
M  END
> <OPENEYE_ISO_SMILES>
CC(C)NC(=O)Nc1ccc(cc1)C(=O)N[C@H]2c3cccc(c3C[C@H]2C(=O)O)O

> <OPENEYE_INCHI>
InChI=1S/C21H23N3O5/c1-11(2)22-21(29)23-13-8-6-12(7-9-13)19(26)24-18-14-4-3-5-17(25)15(14)10-16(18)20(27)28/h3-9,11,16,18,25H,10H2,1-2H3,(H,24,26)(H,27,28)(H2,22,23,29)/t16-,18+/m1/s1

> <OPENEYE_INCHIKEY>
GNIIMSGFFQRDIB-AEFFLSMTSA-N

> <FORMULA>
C21H23N3O5

$$$$
