QN0
  -OEChem-02242320033D

 52 54  0     1  0  0  0  0  0999 V2000
   -8.7330    0.5230   -1.8000 C   0  0  0  0  0  0  0  0  0  0  0  0
   -7.6680    0.8390   -0.7470 C   0  0  0  0  0  0  0  0  0  0  0  0
   -5.4420   -0.0220   -0.2540 C   0  0  0  0  0  0  0  0  0  0  0  0
   -3.2280   -0.7700    0.1670 C   0  0  0  0  0  0  0  0  0  0  0  0
   -2.9540    0.1940    1.1310 C   0  0  0  0  0  0  0  0  0  0  0  0
   -1.6530    0.4510    1.5000 C   0  0  0  0  0  0  0  0  0  0  0  0
   -0.6070   -0.2580    0.9040 C   0  0  0  0  0  0  0  0  0  0  0  0
    0.7900    0.0150    1.2970 C   0  0  0  0  0  0  0  0  0  0  0  0
    3.1840   -0.4000    1.1110 C   0  0  1  0  0  0  0  0  0  0  0  0
    4.0980   -1.5680    0.6850 C   0  0  1  0  0  0  0  0  0  0  0  0
    3.5250   -2.2890   -0.5070 C   0  0  0  0  0  0  0  0  0  0  0  0
    5.4100   -0.8440    0.3160 C   0  0  0  0  0  0  0  0  0  0  0  0
    4.9910    0.5530   -0.0890 C   0  0  0  0  0  0  0  0  0  0  0  0
    5.6770    1.5270   -0.8030 C   0  0  0  0  0  0  0  0  0  0  0  0
    5.0810    2.7530   -1.0570 C   0  0  0  0  0  0  0  0  0  0  0  0
    3.8020    3.0030   -0.5990 C   0  0  0  0  0  0  0  0  0  0  0  0
    3.1200    2.0340    0.1110 C   0  0  0  0  0  0  0  0  0  0  0  0
    3.7120    0.8080    0.3670 C   0  0  0  0  0  0  0  0  0  0  0  0
   -0.8850   -1.2260   -0.0640 C   0  0  0  0  0  0  0  0  0  0  0  0
   -2.1890   -1.4820   -0.4240 C   0  0  0  0  0  0  0  0  0  0  0  0
   -8.3340    0.9970    0.6210 C   0  0  0  0  0  0  0  0  0  0  0  0
   -6.6950   -0.2550   -0.6930 N   0  0  0  0  0  0  0  0  0  0  0  0
   -4.5470   -1.0280   -0.2040 N   0  0  0  0  0  0  0  0  0  0  0  0
    1.7980   -0.6700    0.7210 N   0  0  0  0  0  0  0  0  0  0  0  0
    3.7440   -1.8810   -1.6230 O   0  0  0  0  0  0  0  0  0  0  0  0
    2.7710   -3.3860   -0.3300 O   0  0  0  0  0  0  0  0  0  0  0  0
    6.9350    1.2780   -1.2540 O   0  0  0  0  0  0  0  0  0  0  0  0
    1.0310    0.8570    2.1390 O   0  0  0  0  0  0  0  0  0  0  0  0
   -5.1200    1.0960    0.0980 O   0  0  0  0  0  0  0  0  0  0  0  0
   -9.4560    1.3370   -1.8400 H   0  0  0  0  0  0  0  0  0  0  0  0
   -8.2580    0.4100   -2.7740 H   0  0  0  0  0  0  0  0  0  0  0  0
   -9.2420   -0.4030   -1.5350 H   0  0  0  0  0  0  0  0  0  0  0  0
   -7.1590    1.7650   -1.0120 H   0  0  0  0  0  0  0  0  0  0  0  0
   -3.7630    0.7420    1.5910 H   0  0  0  0  0  0  0  0  0  0  0  0
   -1.4410    1.2010    2.2480 H   0  0  0  0  0  0  0  0  0  0  0  0
    3.2490   -0.2390    2.1870 H   0  0  0  0  0  0  0  0  0  0  0  0
    4.2560   -2.2580    1.5140 H   0  0  0  0  0  0  0  0  0  0  0  0
    6.0750   -0.8040    1.1780 H   0  0  0  0  0  0  0  0  0  0  0  0
    5.9000   -1.3500   -0.5160 H   0  0  0  0  0  0  0  0  0  0  0  0
    5.6150    3.5100   -1.6120 H   0  0  0  0  0  0  0  0  0  0  0  0
    3.3360    3.9570   -0.7950 H   0  0  0  0  0  0  0  0  0  0  0  0
    2.1210    2.2330    0.4680 H   0  0  0  0  0  0  0  0  0  0  0  0
   -0.0790   -1.7760   -0.5270 H   0  0  0  0  0  0  0  0  0  0  0  0
   -2.4060   -2.2340   -1.1690 H   0  0  0  0  0  0  0  0  0  0  0  0
   -8.8440    0.0700    0.8860 H   0  0  0  0  0  0  0  0  0  0  0  0
   -7.5760    1.2220    1.3710 H   0  0  0  0  0  0  0  0  0  0  0  0
   -9.0580    1.8110    0.5810 H   0  0  0  0  0  0  0  0  0  0  0  0
   -6.9520   -1.1470   -0.9740 H   0  0  0  0  0  0  0  0  0  0  0  0
   -4.8210   -1.9320   -0.4260 H   0  0  0  0  0  0  0  0  0  0  0  0
    1.6050   -1.3420    0.0490 H   0  0  0  0  0  0  0  0  0  0  0  0
    2.4250   -3.8140   -1.1250 H   0  0  0  0  0  0  0  0  0  0  0  0
    6.9660    0.8880   -2.1380 H   0  0  0  0  0  0  0  0  0  0  0  0
  1  2  1  0  0  0  0
  3 22  1  0  0  0  0
  4 23  1  0  0  0  0
  4  5  2  0  0  0  0
  5  6  1  0  0  0  0
  6  7  2  0  0  0  0
  9 24  1  0  0  0  0
  9 10  1  0  0  0  0
 11 25  2  0  0  0  0
 11 26  1  0  0  0  0
 10 11  1  0  0  0  0
 10 12  1  0  0  0  0
 12 13  1  0  0  0  0
 13 14  2  0  0  0  0
 14 27  1  0  0  0  0
 14 15  1  0  0  0  0
 15 16  2  0  0  0  0
 16 17  1  0  0  0  0
 17 18  2  0  0  0  0
  8 24  1  0  0  0  0
  8 28  2  0  0  0  0
  7  8  1  0  0  0  0
  7 19  1  0  0  0  0
 19 20  2  0  0  0  0
  3 23  1  0  0  0  0
  3 29  2  0  0  0  0
  2 22  1  0  0  0  0
  2 21  1  0  0  0  0
  4 20  1  0  0  0  0
  9 18  1  0  0  0  0
 13 18  1  0  0  0  0
  1 30  1  0  0  0  0
  1 31  1  0  0  0  0
  1 32  1  0  0  0  0
  2 33  1  0  0  0  0
  5 34  1  0  0  0  0
  6 35  1  0  0  0  0
  9 36  1  0  0  0  0
 10 37  1  0  0  0  0
 12 38  1  0  0  0  0
 12 39  1  0  0  0  0
 15 40  1  0  0  0  0
 16 41  1  0  0  0  0
 17 42  1  0  0  0  0
 19 43  1  0  0  0  0
 20 44  1  0  0  0  0
 21 45  1  0  0  0  0
 21 46  1  0  0  0  0
 21 47  1  0  0  0  0
 22 48  1  0  0  0  0
 23 49  1  0  0  0  0
 24 50  1  0  0  0  0
 26 51  1  0  0  0  0
 27 52  1  0  0  0  0
M  END
> <OPENEYE_ISO_SMILES>
CC(C)NC(=O)Nc1ccc(cc1)C(=O)N[C@@H]2c3cccc(c3C[C@@H]2C(=O)O)O

> <OPENEYE_INCHI>
InChI=1S/C21H23N3O5/c1-11(2)22-21(29)23-13-8-6-12(7-9-13)19(26)24-18-14-4-3-5-17(25)15(14)10-16(18)20(27)28/h3-9,11,16,18,25H,10H2,1-2H3,(H,24,26)(H,27,28)(H2,22,23,29)/t16-,18+/m0/s1

> <OPENEYE_INCHIKEY>
GNIIMSGFFQRDIB-FUHWJXTLSA-N

> <FORMULA>
C21H23N3O5

$$$$
