YTM
  -OEChem-02242320043D

 58 62  0     0  0  0  0  0  0999 V2000
   -1.5350    1.5030   -0.2990 C   0  0  0  0  0  0  0  0  0  0  0  0
   -1.1010    0.1560   -0.2520 C   0  0  0  0  0  0  0  0  0  0  0  0
    0.3140   -0.1860   -0.5260 C   0  0  0  0  0  0  0  0  0  0  0  0
    0.6460   -0.9520   -1.6430 C   0  0  0  0  0  0  0  0  0  0  0  0
    1.9660   -1.2690   -1.8950 C   0  0  0  0  0  0  0  0  0  0  0  0
    2.9620   -0.8280   -1.0420 C   0  0  0  0  0  0  0  0  0  0  0  0
   -0.7400    2.3880   -0.5720 O   0  0  0  0  0  0  0  0  0  0  0  0
    3.6220    0.3660    0.9060 O   0  0  0  0  0  0  0  0  0  0  0  0
    2.6400   -0.0650    0.0720 C   0  0  0  0  0  0  0  0  0  0  0  0
    4.9630   -0.0030    0.5770 C   0  0  0  0  0  0  0  0  0  0  0  0
    5.9210    0.5690    1.6230 C   0  0  0  0  0  0  0  0  0  0  0  0
   -4.2460   -2.5360   -1.4660 O   0  0  0  0  0  0  0  0  0  0  0  0
   -7.0240   -4.3040    1.5090 O   0  0  0  0  0  0  0  0  0  0  0  0
    7.3350    0.1790    1.2760 C   0  0  0  0  0  0  0  0  0  0  0  0
    8.0980    0.9980    0.4650 C   0  0  0  0  0  0  0  0  0  0  0  0
    9.3950    0.6410    0.1460 C   0  0  0  0  0  0  0  0  0  0  0  0
    9.9280   -0.5360    0.6370 C   0  0  0  0  0  0  0  0  0  0  0  0
    9.1650   -1.3560    1.4480 C   0  0  0  0  0  0  0  0  0  0  0  0
    7.8700   -0.9950    1.7720 C   0  0  0  0  0  0  0  0  0  0  0  0
    1.3190    0.2620    0.3290 C   0  0  0  0  0  0  0  0  0  0  0  0
   -2.0160   -0.8370    0.0520 C   0  0  0  0  0  0  0  0  0  0  0  0
   -3.3540   -0.4780    0.3070 C   0  0  0  0  0  0  0  0  0  0  0  0
   -4.3560   -1.5220    0.6370 C   0  0  0  0  0  0  0  0  0  0  0  0
   -4.7420   -2.5350   -0.3540 C   0  0  0  0  0  0  0  0  0  0  0  0
   -4.9370   -1.5680    1.8680 C   0  0  0  0  0  0  0  0  0  0  0  0
   -6.2010   -3.4570    1.2210 C   0  0  0  0  0  0  0  0  0  0  0  0
   -3.7280    0.8440    0.2500 C   0  0  0  0  0  0  0  0  0  0  0  0
   -3.2320    3.1480   -0.1060 C   0  0  0  0  0  0  0  0  0  0  0  0
   -3.2410    3.8340   -1.3170 C   0  0  0  0  0  0  0  0  0  0  0  0
   -3.6620    5.1540   -1.3230 C   0  0  0  0  0  0  0  0  0  0  0  0
   -4.0560    5.7420   -0.1350 C   0  0  0  0  0  0  0  0  0  0  0  0
   -3.6430    3.8070    1.0450 C   0  0  0  0  0  0  0  0  0  0  0  0
   -5.6570   -3.4640   -0.0090 N   0  0  0  0  0  0  0  0  0  0  0  0
   -5.8570   -2.5420    2.1420 N   0  0  0  0  0  0  0  0  0  0  0  0
   -2.8210    1.8110   -0.0500 N   0  0  0  0  0  0  0  0  0  0  0  0
   -4.0360    5.0640    0.9960 N   0  0  0  0  0  0  0  0  0  0  0  0
    2.3770   -2.2240   -3.2860 Cl  0  0  0  0  0  0  0  0  0  0  0  0
   -0.1300   -1.2980   -2.3100 H   0  0  0  0  0  0  0  0  0  0  0  0
    3.9930   -1.0820   -1.2410 H   0  0  0  0  0  0  0  0  0  0  0  0
    5.0470   -1.0900    0.5620 H   0  0  0  0  0  0  0  0  0  0  0  0
    5.2180    0.3940   -0.4050 H   0  0  0  0  0  0  0  0  0  0  0  0
    5.8370    1.6550    1.6380 H   0  0  0  0  0  0  0  0  0  0  0  0
    5.6660    0.1710    2.6060 H   0  0  0  0  0  0  0  0  0  0  0  0
    7.6820    1.9180    0.0820 H   0  0  0  0  0  0  0  0  0  0  0  0
    9.9910    1.2810   -0.4870 H   0  0  0  0  0  0  0  0  0  0  0  0
   10.9390   -0.8180    0.3840 H   0  0  0  0  0  0  0  0  0  0  0  0
    9.5810   -2.2750    1.8320 H   0  0  0  0  0  0  0  0  0  0  0  0
    7.2740   -1.6350    2.4050 H   0  0  0  0  0  0  0  0  0  0  0  0
    1.0680    0.8570    1.1960 H   0  0  0  0  0  0  0  0  0  0  0  0
   -1.7080   -1.8720    0.0930 H   0  0  0  0  0  0  0  0  0  0  0  0
   -4.6730   -0.8420    2.6220 H   0  0  0  0  0  0  0  0  0  0  0  0
   -4.7540    1.1180    0.4450 H   0  0  0  0  0  0  0  0  0  0  0  0
   -2.9270    3.3500   -2.2300 H   0  0  0  0  0  0  0  0  0  0  0  0
   -3.6820    5.7180   -2.2440 H   0  0  0  0  0  0  0  0  0  0  0  0
   -4.3850    6.7710   -0.1340 H   0  0  0  0  0  0  0  0  0  0  0  0
   -3.6410    3.2850    1.9900 H   0  0  0  0  0  0  0  0  0  0  0  0
   -5.9270   -4.1390   -0.6510 H   0  0  0  0  0  0  0  0  0  0  0  0
   -6.2690   -2.5730    3.0200 H   0  0  0  0  0  0  0  0  0  0  0  0
 17 18  2  0  0  0  0
 16 17  1  0  0  0  0
 18 19  1  0  0  0  0
 25 34  1  0  0  0  0
 26 34  1  0  0  0  0
 15 16  2  0  0  0  0
 13 26  2  0  0  0  0
 14 19  2  0  0  0  0
 23 25  2  0  0  0  0
 26 33  1  0  0  0  0
  8  9  1  0  0  0  0
  8 10  1  0  0  0  0
 14 15  1  0  0  0  0
  6  9  2  0  0  0  0
  5  6  1  0  0  0  0
  9 20  1  0  0  0  0
  5 37  1  0  0  0  0
 11 14  1  0  0  0  0
  4  5  2  0  0  0  0
 10 11  1  0  0  0  0
  3 20  2  0  0  0  0
  3  4  1  0  0  0  0
 22 23  1  0  0  0  0
 23 24  1  0  0  0  0
  2  3  1  0  0  0  0
 24 33  1  0  0  0  0
 21 22  1  0  0  0  0
  2 21  2  0  0  0  0
 22 27  2  0  0  0  0
  1  2  1  0  0  0  0
 12 24  2  0  0  0  0
 27 35  1  0  0  0  0
  1 35  1  0  0  0  0
  1  7  2  0  0  0  0
 28 35  1  0  0  0  0
 28 29  2  0  0  0  0
 29 30  1  0  0  0  0
 28 32  1  0  0  0  0
 30 31  2  0  0  0  0
 32 36  2  0  0  0  0
 31 36  1  0  0  0  0
  4 38  1  0  0  0  0
  6 39  1  0  0  0  0
 10 40  1  0  0  0  0
 10 41  1  0  0  0  0
 11 42  1  0  0  0  0
 11 43  1  0  0  0  0
 15 44  1  0  0  0  0
 16 45  1  0  0  0  0
 17 46  1  0  0  0  0
 18 47  1  0  0  0  0
 19 48  1  0  0  0  0
 20 49  1  0  0  0  0
 21 50  1  0  0  0  0
 25 51  1  0  0  0  0
 27 52  1  0  0  0  0
 29 53  1  0  0  0  0
 30 54  1  0  0  0  0
 31 55  1  0  0  0  0
 32 56  1  0  0  0  0
 33 57  1  0  0  0  0
 34 58  1  0  0  0  0
M  END
> <OPENEYE_ISO_SMILES>
c1ccc(cc1)CCOc2cc(cc(c2)Cl)c3cc(cn(c3=O)c4cccnc4)c5c[nH]c(=O)[nH]c5=O

> <OPENEYE_INCHI>
InChI=1S/C28H21ClN4O4/c29-21-11-19(12-23(14-21)37-10-8-18-5-2-1-3-6-18)24-13-20(25-16-31-28(36)32-26(25)34)17-33(27(24)35)22-7-4-9-30-15-22/h1-7,9,11-17H,8,10H2,(H2,31,32,34,36)

> <OPENEYE_INCHIKEY>
JVSFPWJWCIUVJO-UHFFFAOYSA-N

> <FORMULA>
C28H21ClN4O4

$$$$
