H60
  -OEChem-02242320023D

 61 62  0     1  0  0  0  0  0999 V2000
   -2.3330    0.1450   -0.3700 C   0  0  0  0  0  0  0  0  0  0  0  0
   -2.1970    0.4440   -1.5420 O   0  0  0  0  0  0  0  0  0  0  0  0
   -3.6080   -0.3980    0.1040 C   0  0  0  0  0  0  0  0  0  0  0  0
   -4.6320   -0.5630   -0.7570 C   0  0  0  0  0  0  0  0  0  0  0  0
   -5.9130   -1.1100   -0.2810 C   0  0  0  0  0  0  0  0  0  0  0  0
   -6.9780   -1.2820   -1.1710 C   0  0  0  0  0  0  0  0  0  0  0  0
   -8.1750   -1.7940   -0.7170 C   0  0  0  0  0  0  0  0  0  0  0  0
   -8.3240   -2.1380    0.6150 C   0  0  0  0  0  0  0  0  0  0  0  0
   -7.2750   -1.9700    1.5020 C   0  0  0  0  0  0  0  0  0  0  0  0
   -6.0700   -1.4650    1.0620 C   0  0  0  0  0  0  0  0  0  0  0  0
   -1.3090    0.3100    0.4910 N   0  0  0  0  0  0  0  0  0  0  0  0
   -0.0340    0.8540    0.0170 C   0  0  2  0  0  0  0  0  0  0  0  0
    1.0770    0.3890    0.9230 C   0  0  0  0  0  0  0  0  0  0  0  0
    0.8290   -0.3250    1.8700 O   0  0  0  0  0  0  0  0  0  0  0  0
   -0.0960    2.3820    0.0280 C   0  0  0  0  0  0  0  0  0  0  0  0
   -1.1400    2.8570   -0.9850 C   0  0  0  0  0  0  0  0  0  0  0  0
   -1.2020    4.3860   -0.9740 C   0  0  0  0  0  0  0  0  0  0  0  0
   -2.2470    4.8610   -1.9870 C   0  0  0  0  0  0  0  0  0  0  0  0
    4.6640   -3.2510   -0.7520 C   0  0  0  0  0  0  0  0  0  0  0  0
    3.4280    0.3180    1.5590 C   0  0  1  0  0  0  0  0  0  0  0  0
    4.4880   -2.1810    0.3330 C   0  0  0  0  0  0  0  0  0  0  0  0
    5.8740   -0.7700   -1.1680 C   0  0  0  0  0  0  0  0  0  0  0  0
    4.7390    0.2650    0.7720 C   0  0  0  0  0  0  0  0  0  0  0  0
    3.5720    1.2790    2.7110 C   0  0  0  0  0  0  0  0  0  0  0  0
    4.6360   -0.8040   -0.3180 C   0  0  2  0  0  0  0  0  0  0  0  0
    6.1140   -3.2240   -1.2370 C   0  0  0  0  0  0  0  0  0  0  0  0
    2.3480    0.7690    0.6790 N   0  0  0  0  0  0  0  0  0  0  0  0
    6.5100   -1.8650   -1.5860 N   0  0  0  0  0  0  0  0  0  0  0  0
    2.8470    2.2420    2.7880 O   0  0  0  0  0  0  0  0  0  0  0  0
    6.3200    0.3100   -1.4910 O   0  0  0  0  0  0  0  0  0  0  0  0
   -3.7270   -0.6680    1.1430 H   0  0  0  0  0  0  0  0  0  0  0  0
   -4.5120   -0.2940   -1.7960 H   0  0  0  0  0  0  0  0  0  0  0  0
   -6.8630   -1.0130   -2.2110 H   0  0  0  0  0  0  0  0  0  0  0  0
   -8.9980   -1.9270   -1.4030 H   0  0  0  0  0  0  0  0  0  0  0  0
   -9.2640   -2.5390    0.9640 H   0  0  0  0  0  0  0  0  0  0  0  0
   -7.3990   -2.2400    2.5400 H   0  0  0  0  0  0  0  0  0  0  0  0
   -5.2510   -1.3390    1.7550 H   0  0  0  0  0  0  0  0  0  0  0  0
   -1.4160    0.0680    1.4240 H   0  0  0  0  0  0  0  0  0  0  0  0
    0.1550    0.5050   -0.9980 H   0  0  0  0  0  0  0  0  0  0  0  0
   -0.3730    2.7280    1.0240 H   0  0  0  0  0  0  0  0  0  0  0  0
    0.8800    2.7870   -0.2400 H   0  0  0  0  0  0  0  0  0  0  0  0
   -0.8640    2.5120   -1.9810 H   0  0  0  0  0  0  0  0  0  0  0  0
   -2.1160    2.4520   -0.7180 H   0  0  0  0  0  0  0  0  0  0  0  0
   -1.4790    4.7310    0.0220 H   0  0  0  0  0  0  0  0  0  0  0  0
   -0.2270    4.7910   -1.2410 H   0  0  0  0  0  0  0  0  0  0  0  0
   -1.9700    4.5160   -2.9830 H   0  0  0  0  0  0  0  0  0  0  0  0
   -3.2220    4.4560   -1.7190 H   0  0  0  0  0  0  0  0  0  0  0  0
   -2.2910    5.9500   -1.9790 H   0  0  0  0  0  0  0  0  0  0  0  0
    4.4350   -4.2330   -0.3380 H   0  0  0  0  0  0  0  0  0  0  0  0
    3.9940   -3.0400   -1.5850 H   0  0  0  0  0  0  0  0  0  0  0  0
    3.1940   -0.6750    1.9420 H   0  0  0  0  0  0  0  0  0  0  0  0
    3.4990   -2.2710    0.7800 H   0  0  0  0  0  0  0  0  0  0  0  0
    5.2510   -2.3090    1.1010 H   0  0  0  0  0  0  0  0  0  0  0  0
    4.9260    1.2350    0.3130 H   0  0  0  0  0  0  0  0  0  0  0  0
    5.5590    0.0180    1.4470 H   0  0  0  0  0  0  0  0  0  0  0  0
    4.3240    1.1070    3.4670 H   0  0  0  0  0  0  0  0  0  0  0  0
    3.7650   -0.6020   -0.9410 H   0  0  0  0  0  0  0  0  0  0  0  0
    6.7650   -3.5960   -0.4460 H   0  0  0  0  0  0  0  0  0  0  0  0
    6.2120   -3.8620   -2.1150 H   0  0  0  0  0  0  0  0  0  0  0  0
    2.5460    1.3400   -0.0790 H   0  0  0  0  0  0  0  0  0  0  0  0
    7.2840   -1.7510   -2.1590 H   0  0  0  0  0  0  0  0  0  0  0  0
 22 28  1  0  0  0  0
 26 28  1  0  0  0  0
 22 30  2  0  0  0  0
 22 25  1  0  0  0  0
 19 26  1  0  0  0  0
 19 21  1  0  0  0  0
 24 29  2  0  0  0  0
 23 25  1  0  0  0  0
 20 23  1  0  0  0  0
 21 25  1  0  0  0  0
 20 24  1  0  0  0  0
 20 27  1  0  0  0  0
 13 27  1  0  0  0  0
  1  2  2  0  0  0  0
 13 14  2  0  0  0  0
 12 13  1  0  0  0  0
  4  5  1  0  0  0  0
  3  4  2  0  0  0  0
  5 10  2  0  0  0  0
  9 10  1  0  0  0  0
  1  3  1  0  0  0  0
  1 11  1  0  0  0  0
 11 12  1  0  0  0  0
 12 15  1  0  0  0  0
  5  6  1  0  0  0  0
  8  9  2  0  0  0  0
 15 16  1  0  0  0  0
  6  7  2  0  0  0  0
  7  8  1  0  0  0  0
 16 17  1  0  0  0  0
 17 18  1  0  0  0  0
 27 60  1  0  0  0  0
 15 40  1  0  0  0  0
 15 41  1  0  0  0  0
 17 44  1  0  0  0  0
 17 45  1  0  0  0  0
  3 31  1  0  0  0  0
  4 32  1  0  0  0  0
  6 33  1  0  0  0  0
  8 35  1  0  0  0  0
 10 37  1  0  0  0  0
 24 56  1  0  0  0  0
 20 51  1  0  0  0  0
 23 54  1  0  0  0  0
 23 55  1  0  0  0  0
 25 57  1  0  0  0  0
 21 52  1  0  0  0  0
 21 53  1  0  0  0  0
 19 49  1  0  0  0  0
 19 50  1  0  0  0  0
 26 58  1  0  0  0  0
 26 59  1  0  0  0  0
 12 39  1  0  0  0  0
 16 42  1  0  0  0  0
 16 43  1  0  0  0  0
 18 46  1  0  0  0  0
 18 47  1  0  0  0  0
 18 48  1  0  0  0  0
  7 34  1  0  0  0  0
  9 36  1  0  0  0  0
 28 61  1  0  0  0  0
 11 38  1  0  0  0  0
M  END
> <OPENEYE_ISO_SMILES>
CCCC[C@@H](C(=O)N[C@@H](C[C@@H]1CCCNC1=O)C=O)NC(=O)/C=C/c2ccccc2

> <OPENEYE_INCHI>
InChI=1S/C23H31N3O4/c1-2-3-11-20(26-21(28)13-12-17-8-5-4-6-9-17)23(30)25-19(16-27)15-18-10-7-14-24-22(18)29/h4-6,8-9,12-13,16,18-20H,2-3,7,10-11,14-15H2,1H3,(H,24,29)(H,25,30)(H,26,28)/b13-12+/t18-,19-,20-/m0/s1

> <OPENEYE_INCHIKEY>
MBIWELOVLSUPFE-GITLDSMSSA-N

> <FORMULA>
C23H31N3O4

$$$$
