RIK
  -OEChem-02242320043D

 42 45  0     1  0  0  0  0  0999 V2000
   -3.0080   -1.8020    0.6820 C   0  0  0  0  0  0  0  0  0  0  0  0
   -2.0600    1.5770   -0.4390 C   0  0  0  0  0  0  0  0  0  0  0  0
   -2.8590    2.7000   -0.4200 C   0  0  0  0  0  0  0  0  0  0  0  0
   -4.1610    2.6230    0.0560 C   0  0  0  0  0  0  0  0  0  0  0  0
   -4.6670    1.4270    0.5230 C   0  0  0  0  0  0  0  0  0  0  0  0
   -3.8760    0.2830    0.5080 C   0  0  0  0  0  0  0  0  0  0  0  0
   -2.5620    0.3610    0.0210 C   0  0  0  0  0  0  0  0  0  0  0  0
   -1.5670   -3.5960    0.5890 C   0  0  0  0  0  0  0  0  0  0  0  0
    6.0080    1.0430    0.8710 C   0  0  0  0  0  0  0  0  0  0  0  0
    4.7890    1.0740   -0.0140 C   0  0  0  0  0  0  0  0  0  0  0  0
    3.7500    0.0820    0.5140 C   0  0  0  0  0  0  0  0  0  0  0  0
    2.5120    0.1140   -0.3840 C   0  0  2  0  0  0  0  0  0  0  0  0
    1.4250   -0.7850    0.2130 C   0  0  0  0  0  0  0  0  0  0  0  0
   -0.7600   -1.5720   -0.1630 C   0  0  0  0  0  0  0  0  0  0  0  0
   -1.9980   -0.9920    0.1380 C   0  0  0  0  0  0  0  0  0  0  0  0
    0.6560   -1.3050   -2.0220 C   0  0  0  0  0  0  0  0  0  0  0  0
    1.7510   -0.4010   -2.5960 C   0  0  0  0  0  0  0  0  0  0  0  0
   -4.9360    3.7300    0.0700 F   0  0  0  0  0  0  0  0  0  0  0  0
    0.2670   -0.8110   -0.6930 N   0  0  2  0  0  0  0  0  0  0  0  0
   -4.1210   -1.0250    0.8920 N   0  0  0  0  0  0  0  0  0  0  0  0
   -2.7460   -3.0930    0.8850 N   0  0  0  0  0  0  0  0  0  0  0  0
   -0.5890   -2.8680    0.0830 N   0  0  0  0  0  0  0  0  0  0  0  0
    7.0560    1.8370    0.5980 O   0  0  0  0  0  0  0  0  0  0  0  0
    2.8550   -0.3630   -1.6880 O   0  0  0  0  0  0  0  0  0  0  0  0
    6.0440    0.3030    1.8260 O   0  0  0  0  0  0  0  0  0  0  0  0
   -1.0480    1.6400   -0.8100 H   0  0  0  0  0  0  0  0  0  0  0  0
   -2.4710    3.6420   -0.7770 H   0  0  0  0  0  0  0  0  0  0  0  0
   -5.6810    1.3770    0.8910 H   0  0  0  0  0  0  0  0  0  0  0  0
   -1.3920   -4.6470    0.7680 H   0  0  0  0  0  0  0  0  0  0  0  0
    4.3650    2.0790   -0.0130 H   0  0  0  0  0  0  0  0  0  0  0  0
    5.0700    0.8000   -1.0300 H   0  0  0  0  0  0  0  0  0  0  0  0
    4.1740   -0.9220    0.5130 H   0  0  0  0  0  0  0  0  0  0  0  0
    3.4690    0.3570    1.5310 H   0  0  0  0  0  0  0  0  0  0  0  0
    2.1400    1.1360   -0.4550 H   0  0  0  0  0  0  0  0  0  0  0  0
    1.8150   -1.7950    0.3350 H   0  0  0  0  0  0  0  0  0  0  0  0
    1.1200   -0.3920    1.1820 H   0  0  0  0  0  0  0  0  0  0  0  0
   -0.2100   -1.2920   -2.6830 H   0  0  0  0  0  0  0  0  0  0  0  0
    1.0330   -2.3240   -1.9360 H   0  0  0  0  0  0  0  0  0  0  0  0
    2.0830   -0.7960   -3.5560 H   0  0  0  0  0  0  0  0  0  0  0  0
    1.3570    0.6060   -2.7330 H   0  0  0  0  0  0  0  0  0  0  0  0
   -4.9600   -1.3470    1.2570 H   0  0  0  0  0  0  0  0  0  0  0  0
    7.8150    1.7820    1.1940 H   0  0  0  0  0  0  0  0  0  0  0  0
  9 25  2  0  0  0  0
  9 23  1  0  0  0  0
  9 10  1  0  0  0  0
 10 11  1  0  0  0  0
 17 24  1  0  0  0  0
 12 24  1  0  0  0  0
 11 12  1  0  0  0  0
 16 17  1  0  0  0  0
 12 13  1  0  0  0  0
 16 19  1  0  0  0  0
 13 19  1  0  0  0  0
 14 19  1  0  0  0  0
  2  3  2  0  0  0  0
  2  7  1  0  0  0  0
  3  4  1  0  0  0  0
 14 22  2  0  0  0  0
 14 15  1  0  0  0  0
  7 15  1  0  0  0  0
  6  7  2  0  0  0  0
  4 18  1  0  0  0  0
  4  5  2  0  0  0  0
  8 22  1  0  0  0  0
  1 15  2  0  0  0  0
  5  6  1  0  0  0  0
  6 20  1  0  0  0  0
  8 21  2  0  0  0  0
  1 20  1  0  0  0  0
  1 21  1  0  0  0  0
  2 26  1  0  0  0  0
  3 27  1  0  0  0  0
  5 28  1  0  0  0  0
  8 29  1  0  0  0  0
 10 30  1  0  0  0  0
 10 31  1  0  0  0  0
 11 32  1  0  0  0  0
 11 33  1  0  0  0  0
 12 34  1  0  0  0  0
 13 35  1  0  0  0  0
 13 36  1  0  0  0  0
 16 37  1  0  0  0  0
 16 38  1  0  0  0  0
 17 39  1  0  0  0  0
 17 40  1  0  0  0  0
 20 41  1  0  0  0  0
 23 42  1  0  0  0  0
M  END
> <OPENEYE_ISO_SMILES>
c1cc2c(cc1F)[nH]c3c2c(ncn3)[N@@]4CCO[C@@H](C4)CCC(=O)O

> <OPENEYE_INCHI>
InChI=1S/C17H17FN4O3/c18-10-1-3-12-13(7-10)21-16-15(12)17(20-9-19-16)22-5-6-25-11(8-22)2-4-14(23)24/h1,3,7,9,11H,2,4-6,8H2,(H,23,24)(H,19,20,21)/t11-/m1/s1

> <OPENEYE_INCHIKEY>
USMUUUCYHOVMGT-LLVKDONJSA-N

> <FORMULA>
C17H17FN4O3

$$$$
