UQO
  -OEChem-02242320043D

 76 77  0     1  0  0  0  0  0999 V2000
    4.9080   -0.1440    0.1240 C   0  0  0  0  0  0  0  0  0  0  0  0
    1.2730   -0.3340   -0.4700 C   0  0  0  0  0  0  0  0  0  0  0  0
   -1.1540   -0.5300   -0.3720 C   0  0  1  0  0  0  0  0  0  0  0  0
   -1.5000   -1.7600   -1.2140 C   0  0  0  0  0  0  0  0  0  0  0  0
   -2.7690   -1.4840   -2.0230 C   0  0  0  0  0  0  0  0  0  0  0  0
   -2.4890   -0.3860   -3.0510 C   0  0  0  0  0  0  0  0  0  0  0  0
   -2.1750   -0.3690    0.7250 C   0  0  0  0  0  0  0  0  0  0  0  0
   -4.3490    0.3920    1.5190 C   0  0  1  0  0  0  0  0  0  0  0  0
   -5.3520    1.4510    1.0550 C   0  0  0  0  0  0  0  0  0  0  0  0
   -4.6200    2.7700    0.8040 C   0  0  1  0  0  0  0  0  0  0  0  0
   -3.6740    2.6360   -0.3690 C   0  0  0  0  0  0  0  0  0  0  0  0
   -5.5350    3.7670   -1.1760 C   0  0  0  0  0  0  0  0  0  0  0  0
   -5.6170    3.8670    0.3630 C   0  0  0  0  0  0  0  0  0  0  0  0
   -5.0970   -0.8910    1.8890 C   0  0  1  0  0  0  0  0  0  0  0  0
    4.8210    0.7340    1.3750 C   0  0  0  0  0  0  0  0  0  0  0  0
    7.7190    0.1480    0.1810 C   0  0  0  0  0  0  0  0  0  0  0  0
    9.4790   -1.2380    1.0270 C   0  0  0  0  0  0  0  0  0  0  0  0
    5.0800   -1.6060    0.5390 C   0  0  0  0  0  0  0  0  0  0  0  0
    3.6240    0.0070   -0.6950 C   0  0  0  0  0  0  0  0  0  0  0  0
   -3.2010   -2.7610   -2.7460 C   0  0  0  0  0  0  0  0  0  0  0  0
    8.3880   -1.0620    0.1960 C   0  0  0  0  0  0  0  0  0  0  0  0
    9.9000   -0.2040    1.8430 C   0  0  0  0  0  0  0  0  0  0  0  0
    9.2370    1.0090    1.8200 C   0  0  0  0  0  0  0  0  0  0  0  0
    8.1430    1.1830    0.9930 C   0  0  0  0  0  0  0  0  0  0  0  0
    0.1750   -0.7020    0.2200 N   0  0  0  0  0  0  0  0  0  0  0  0
   -3.4020    0.1100    0.4380 N   0  0  0  0  0  0  0  0  0  0  0  0
   -4.2090    3.2070   -1.4620 N   0  0  0  0  0  0  0  0  0  0  0  0
    2.4870   -0.4060    0.1080 O   0  0  0  0  0  0  0  0  0  0  0  0
   -2.5900    2.0930   -0.3290 O   0  0  0  0  0  0  0  0  0  0  0  0
   -6.1010   -0.5930    2.8610 O   0  0  0  0  0  0  0  0  0  0  0  0
   -1.8930   -0.6690    1.8650 O   0  0  0  0  0  0  0  0  0  0  0  0
    1.1670    0.0630   -1.6140 O   0  0  0  0  0  0  0  0  0  0  0  0
    6.5480   -0.5450   -1.9420 O   0  0  0  0  0  0  0  0  0  0  0  0
    6.2910    1.7730   -1.1150 O   0  0  0  0  0  0  0  0  0  0  0  0
    6.3290    0.3720   -0.8780 S   0  0  0  0  0  0  0  0  0  0  0  0
   -1.1580    0.3570   -1.0060 H   0  0  0  0  0  0  0  0  0  0  0  0
   -0.6760   -1.9790   -1.8940 H   0  0  0  0  0  0  0  0  0  0  0  0
   -1.6660   -2.6150   -0.5580 H   0  0  0  0  0  0  0  0  0  0  0  0
   -3.5640   -1.1590   -1.3520 H   0  0  0  0  0  0  0  0  0  0  0  0
   -2.1570    0.5170   -2.5380 H   0  0  0  0  0  0  0  0  0  0  0  0
   -1.7120   -0.7200   -3.7380 H   0  0  0  0  0  0  0  0  0  0  0  0
   -3.4000   -0.1710   -3.6100 H   0  0  0  0  0  0  0  0  0  0  0  0
   -3.8070    0.7610    2.3890 H   0  0  0  0  0  0  0  0  0  0  0  0
   -5.8300    1.1190    0.1330 H   0  0  0  0  0  0  0  0  0  0  0  0
   -6.1090    1.5960    1.8260 H   0  0  0  0  0  0  0  0  0  0  0  0
   -4.0780    3.0810    1.6970 H   0  0  0  0  0  0  0  0  0  0  0  0
   -6.3140    3.1040   -1.5540 H   0  0  0  0  0  0  0  0  0  0  0  0
   -5.6310    4.7560   -1.6240 H   0  0  0  0  0  0  0  0  0  0  0  0
   -6.6240    3.6430    0.7150 H   0  0  0  0  0  0  0  0  0  0  0  0
   -5.2950    4.8490    0.7080 H   0  0  0  0  0  0  0  0  0  0  0  0
   -4.3940   -1.6140    2.3030 H   0  0  0  0  0  0  0  0  0  0  0  0
    3.9670    0.4240    1.9770 H   0  0  0  0  0  0  0  0  0  0  0  0
    5.7350    0.6270    1.9580 H   0  0  0  0  0  0  0  0  0  0  0  0
    4.6980    1.7760    1.0790 H   0  0  0  0  0  0  0  0  0  0  0  0
   10.0020   -2.1820    1.0390 H   0  0  0  0  0  0  0  0  0  0  0  0
    5.1420   -2.2310   -0.3520 H   0  0  0  0  0  0  0  0  0  0  0  0
    5.9940   -1.7130    1.1220 H   0  0  0  0  0  0  0  0  0  0  0  0
    4.2260   -1.9160    1.1410 H   0  0  0  0  0  0  0  0  0  0  0  0
    3.5020    1.0490   -0.9900 H   0  0  0  0  0  0  0  0  0  0  0  0
    3.6870   -0.6180   -1.5860 H   0  0  0  0  0  0  0  0  0  0  0  0
   -3.4000   -3.5430   -2.0130 H   0  0  0  0  0  0  0  0  0  0  0  0
   -4.1050   -2.5640   -3.3220 H   0  0  0  0  0  0  0  0  0  0  0  0
   -2.4060   -3.0860   -3.4170 H   0  0  0  0  0  0  0  0  0  0  0  0
    8.0590   -1.8690   -0.4410 H   0  0  0  0  0  0  0  0  0  0  0  0
   10.7520   -0.3420    2.4930 H   0  0  0  0  0  0  0  0  0  0  0  0
    9.5660    1.8160    2.4570 H   0  0  0  0  0  0  0  0  0  0  0  0
    7.6210    2.1280    0.9810 H   0  0  0  0  0  0  0  0  0  0  0  0
    0.2650   -1.0810    1.1080 H   0  0  0  0  0  0  0  0  0  0  0  0
   -3.6570    0.2680   -0.4850 H   0  0  0  0  0  0  0  0  0  0  0  0
   -3.7740    3.2440   -2.3290 H   0  0  0  0  0  0  0  0  0  0  0  0
   -6.7620    0.0460    2.5610 H   0  0  0  0  0  0  0  0  0  0  0  0
   -5.8770   -1.5860    0.4070 S   0  0  0  0  0  0  0  0  0  0  0  0
   -6.8550   -0.6920   -0.1080 O   0  0  0  0  0  0  0  0  0  0  0  0
   -4.9000   -2.1710   -0.4440 O   0  0  0  0  0  0  0  0  0  0  0  0
   -6.6840   -2.7690    0.9210 O   0  0  0  0  0  0  0  0  0  0  0  0
   -7.1640   -3.2470    0.2320 H   0  0  0  0  0  0  0  0  0  0  0  0
 22 23  2  0  0  0  0
 23 24  1  0  0  0  0
 17 22  1  0  0  0  0
 16 24  2  0  0  0  0
 17 21  2  0  0  0  0
 16 21  1  0  0  0  0
 16 35  1  0  0  0  0
 34 35  2  0  0  0  0
  1 18  1  0  0  0  0
  1 35  1  0  0  0  0
 33 35  2  0  0  0  0
  1 19  1  0  0  0  0
  1 15  1  0  0  0  0
 19 28  1  0  0  0  0
  2 28  1  0  0  0  0
  2 25  1  0  0  0  0
  2 32  2  0  0  0  0
 12 13  1  0  0  0  0
 12 27  1  0  0  0  0
  3 25  1  0  0  0  0
 10 13  1  0  0  0  0
  7 31  2  0  0  0  0
 11 27  1  0  0  0  0
  3  7  1  0  0  0  0
  3  4  1  0  0  0  0
  7 26  1  0  0  0  0
 10 11  1  0  0  0  0
  9 10  1  0  0  0  0
 11 29  2  0  0  0  0
  4  5  1  0  0  0  0
  5  6  1  0  0  0  0
  5 20  1  0  0  0  0
  8 26  1  0  0  0  0
  8  9  1  0  0  0  0
  8 14  1  0  0  0  0
 14 30  1  0  0  0  0
  3 36  1  0  0  0  0
  4 37  1  0  0  0  0
  4 38  1  0  0  0  0
  5 39  1  0  0  0  0
  6 40  1  0  0  0  0
  6 41  1  0  0  0  0
  6 42  1  0  0  0  0
  8 43  1  0  0  0  0
  9 44  1  0  0  0  0
  9 45  1  0  0  0  0
 10 46  1  0  0  0  0
 12 47  1  0  0  0  0
 12 48  1  0  0  0  0
 13 49  1  0  0  0  0
 13 50  1  0  0  0  0
 14 51  1  0  0  0  0
 15 52  1  0  0  0  0
 15 53  1  0  0  0  0
 15 54  1  0  0  0  0
 17 55  1  0  0  0  0
 18 56  1  0  0  0  0
 18 57  1  0  0  0  0
 18 58  1  0  0  0  0
 19 59  1  0  0  0  0
 19 60  1  0  0  0  0
 20 61  1  0  0  0  0
 20 62  1  0  0  0  0
 20 63  1  0  0  0  0
 21 64  1  0  0  0  0
 22 65  1  0  0  0  0
 23 66  1  0  0  0  0
 24 67  1  0  0  0  0
 25 68  1  0  0  0  0
 26 69  1  0  0  0  0
 27 70  1  0  0  0  0
 30 71  1  0  0  0  0
 14 72  1  0  0  0  0
 72 73  2  0  0  0  0
 72 74  2  0  0  0  0
 72 75  1  0  0  0  0
 75 76  1  0  0  0  0
M  END
> <OPENEYE_ISO_SMILES>
CC(C)C[C@@H](C(=O)N[C@@H](C[C@@H]1CCNC1=O)[C@@H](O)S(=O)(=O)O)NC(=O)OCC(C)(C)S(=O)(=O)c2ccccc2

> <OPENEYE_INCHI>
InChI=1S/C24H37N3O10S2/c1-15(2)12-18(21(29)26-19(22(30)39(34,35)36)13-16-10-11-25-20(16)28)27-23(31)37-14-24(3,4)38(32,33)17-8-6-5-7-9-17/h5-9,15-16,18-19,22,30H,10-14H2,1-4H3,(H,25,28)(H,26,29)(H,27,31)(H,34,35,36)/t16-,18-,19-,22-/m0/s1

> <OPENEYE_INCHIKEY>
ATVOVJHWVGHVRU-FUOQNJDISA-N

> <FORMULA>
C24H37N3O10S2

$$$$
