WJB
  -OEChem-02242320043D

 76 77  0     1  0  0  0  0  0999 V2000
    4.9350    0.2230    0.0360 C   0  0  0  0  0  0  0  0  0  0  0  0
    1.3860   -0.4410    0.7860 C   0  0  0  0  0  0  0  0  0  0  0  0
   -1.0350   -0.4370    1.0610 C   0  0  1  0  0  0  0  0  0  0  0  0
   -1.2170   -0.5940    2.5720 C   0  0  0  0  0  0  0  0  0  0  0  0
   -2.4920   -1.3910    2.8530 C   0  0  0  0  0  0  0  0  0  0  0  0
   -2.3340   -2.8130    2.3110 C   0  0  0  0  0  0  0  0  0  0  0  0
   -2.1770    0.3690    0.4990 C   0  0  0  0  0  0  0  0  0  0  0  0
   -4.4350    0.5320   -0.4030 C   0  0  1  0  0  0  0  0  0  0  0  0
   -5.3900   -0.4370   -1.1020 C   0  0  0  0  0  0  0  0  0  0  0  0
   -4.6710   -1.1000   -2.2800 C   0  0  1  0  0  0  0  0  0  0  0  0
   -3.5550   -1.9920   -1.7840 C   0  0  0  0  0  0  0  0  0  0  0  0
   -5.3080   -3.4110   -2.3390 C   0  0  0  0  0  0  0  0  0  0  0  0
   -5.6250   -2.0630   -3.0230 C   0  0  0  0  0  0  0  0  0  0  0  0
   -5.2040    1.3340    0.6500 C   0  0  1  0  0  0  0  0  0  0  0  0
    4.7030    0.7600   -1.3780 C   0  0  0  0  0  0  0  0  0  0  0  0
    7.7200    0.3220   -0.4410 C   0  0  0  0  0  0  0  0  0  0  0  0
    9.4060    1.9290    0.1140 C   0  0  0  0  0  0  0  0  0  0  0  0
   -6.4120    2.4090   -0.1720 S   0  0  0  0  0  0  0  0  0  0  0  0
    5.0890    1.3940    1.0080 C   0  0  0  0  0  0  0  0  0  0  0  0
    3.7410   -0.6370    0.4570 C   0  0  0  0  0  0  0  0  0  0  0  0
   -2.7380   -1.4450    4.3620 C   0  0  0  0  0  0  0  0  0  0  0  0
    8.4050    1.0600    0.5060 C   0  0  0  0  0  0  0  0  0  0  0  0
    9.7220    2.0590   -1.2260 C   0  0  0  0  0  0  0  0  0  0  0  0
    9.0440    1.3130   -2.1720 C   0  0  0  0  0  0  0  0  0  0  0  0
    8.0390    0.4490   -1.7800 C   0  0  0  0  0  0  0  0  0  0  0  0
    0.2290    0.2510    0.7890 N   0  0  0  0  0  0  0  0  0  0  0  0
   -3.3620   -0.2230    0.2470 N   0  0  0  0  0  0  0  0  0  0  0  0
   -3.9360   -3.2800   -1.8330 N   0  0  0  0  0  0  0  0  0  0  0  0
    2.5340    0.1700    0.4380 O   0  0  0  0  0  0  0  0  0  0  0  0
   -2.4730   -1.6030   -1.3980 O   0  0  0  0  0  0  0  0  0  0  0  0
   -5.8850    0.4360    1.5290 O   0  0  0  0  0  0  0  0  0  0  0  0
   -2.0310    1.5520    0.2720 O   0  0  0  0  0  0  0  0  0  0  0  0
    1.3920   -1.6150    1.0970 O   0  0  0  0  0  0  0  0  0  0  0  0
    6.7870   -1.1360    1.3930 O   0  0  0  0  0  0  0  0  0  0  0  0
    6.4050   -1.7640   -0.9700 O   0  0  0  0  0  0  0  0  0  0  0  0
    6.4440   -0.7850    0.0600 S   0  0  0  0  0  0  0  0  0  0  0  0
   -1.0210   -1.4220    0.5930 H   0  0  0  0  0  0  0  0  0  0  0  0
   -0.3590   -1.1220    2.9880 H   0  0  0  0  0  0  0  0  0  0  0  0
   -1.2950    0.3910    3.0320 H   0  0  0  0  0  0  0  0  0  0  0  0
   -3.3380   -0.9080    2.3640 H   0  0  0  0  0  0  0  0  0  0  0  0
   -3.2680   -3.3590    2.4450 H   0  0  0  0  0  0  0  0  0  0  0  0
   -2.0860   -2.7730    1.2500 H   0  0  0  0  0  0  0  0  0  0  0  0
   -1.5350   -3.3210    2.8520 H   0  0  0  0  0  0  0  0  0  0  0  0
   -4.0070    1.2140   -1.1370 H   0  0  0  0  0  0  0  0  0  0  0  0
   -5.7120   -1.2030   -0.3960 H   0  0  0  0  0  0  0  0  0  0  0  0
   -6.2590    0.1090   -1.4680 H   0  0  0  0  0  0  0  0  0  0  0  0
   -4.2810   -0.3440   -2.9610 H   0  0  0  0  0  0  0  0  0  0  0  0
   -5.9990   -3.5880   -1.5150 H   0  0  0  0  0  0  0  0  0  0  0  0
   -5.3670   -4.2250   -3.0620 H   0  0  0  0  0  0  0  0  0  0  0  0
   -6.6660   -1.7810   -2.8650 H   0  0  0  0  0  0  0  0  0  0  0  0
   -5.3900   -2.1010   -4.0870 H   0  0  0  0  0  0  0  0  0  0  0  0
   -4.5060    1.9440    1.2230 H   0  0  0  0  0  0  0  0  0  0  0  0
    3.7970    1.3660   -1.3920 H   0  0  0  0  0  0  0  0  0  0  0  0
    5.5540    1.3720   -1.6780 H   0  0  0  0  0  0  0  0  0  0  0  0
    4.5940   -0.0740   -2.0700 H   0  0  0  0  0  0  0  0  0  0  0  0
    9.9420    2.5060    0.8540 H   0  0  0  0  0  0  0  0  0  0  0  0
    5.2540    1.0110    2.0150 H   0  0  0  0  0  0  0  0  0  0  0  0
    5.9400    2.0060    0.7080 H   0  0  0  0  0  0  0  0  0  0  0  0
    4.1830    1.9990    0.9940 H   0  0  0  0  0  0  0  0  0  0  0  0
    3.6320   -1.4710   -0.2360 H   0  0  0  0  0  0  0  0  0  0  0  0
    3.9070   -1.0200    1.4640 H   0  0  0  0  0  0  0  0  0  0  0  0
   -2.8510   -0.4310    4.7480 H   0  0  0  0  0  0  0  0  0  0  0  0
   -3.6470   -2.0130    4.5620 H   0  0  0  0  0  0  0  0  0  0  0  0
   -1.8920   -1.9280    4.8510 H   0  0  0  0  0  0  0  0  0  0  0  0
    8.1580    0.9580    1.5530 H   0  0  0  0  0  0  0  0  0  0  0  0
   10.5040    2.7380   -1.5330 H   0  0  0  0  0  0  0  0  0  0  0  0
    9.2910    1.4150   -3.2180 H   0  0  0  0  0  0  0  0  0  0  0  0
    7.5040   -0.1280   -2.5190 H   0  0  0  0  0  0  0  0  0  0  0  0
    0.2340    1.2050    0.6120 H   0  0  0  0  0  0  0  0  0  0  0  0
   -3.5030   -1.1500    0.4970 H   0  0  0  0  0  0  0  0  0  0  0  0
   -3.3770   -4.0280   -1.5680 H   0  0  0  0  0  0  0  0  0  0  0  0
   -5.3000   -0.1700    2.0030 H   0  0  0  0  0  0  0  0  0  0  0  0
   -5.5910    3.2040   -1.1780 O   0  0  0  0  0  0  0  0  0  0  0  0
   -7.2990    1.6400   -0.9740 O   0  0  0  0  0  0  0  0  0  0  0  0
   -6.9040    3.3890    0.7310 O   0  0  0  0  0  0  0  0  0  0  0  0
   -6.1100    3.8310   -1.7010 H   0  0  0  0  0  0  0  0  0  0  0  0
 23 24  2  0  0  0  0
 24 25  1  0  0  0  0
 17 23  1  0  0  0  0
 16 25  2  0  0  0  0
 17 22  2  0  0  0  0
 16 22  1  0  0  0  0
 16 36  1  0  0  0  0
 35 36  2  0  0  0  0
  1 19  1  0  0  0  0
  1 36  1  0  0  0  0
 34 36  2  0  0  0  0
  1 20  1  0  0  0  0
  1 15  1  0  0  0  0
 20 29  1  0  0  0  0
  2 29  1  0  0  0  0
  2 26  1  0  0  0  0
  2 33  2  0  0  0  0
 12 13  1  0  0  0  0
 12 28  1  0  0  0  0
  3 26  1  0  0  0  0
 10 13  1  0  0  0  0
  7 32  2  0  0  0  0
 11 28  1  0  0  0  0
  3  7  1  0  0  0  0
  3  4  1  0  0  0  0
  7 27  1  0  0  0  0
 10 11  1  0  0  0  0
  9 10  1  0  0  0  0
 11 30  2  0  0  0  0
  4  5  1  0  0  0  0
  5  6  1  0  0  0  0
  5 21  1  0  0  0  0
  8 27  1  0  0  0  0
  8  9  1  0  0  0  0
  8 14  1  0  0  0  0
 14 31  1  0  0  0  0
 14 18  1  0  0  0  0
  3 37  1  0  0  0  0
  4 38  1  0  0  0  0
  4 39  1  0  0  0  0
  5 40  1  0  0  0  0
  6 41  1  0  0  0  0
  6 42  1  0  0  0  0
  6 43  1  0  0  0  0
  8 44  1  0  0  0  0
  9 45  1  0  0  0  0
  9 46  1  0  0  0  0
 10 47  1  0  0  0  0
 12 48  1  0  0  0  0
 12 49  1  0  0  0  0
 13 50  1  0  0  0  0
 13 51  1  0  0  0  0
 14 52  1  0  0  0  0
 15 53  1  0  0  0  0
 15 54  1  0  0  0  0
 15 55  1  0  0  0  0
 17 56  1  0  0  0  0
 19 57  1  0  0  0  0
 19 58  1  0  0  0  0
 19 59  1  0  0  0  0
 20 60  1  0  0  0  0
 20 61  1  0  0  0  0
 21 62  1  0  0  0  0
 21 63  1  0  0  0  0
 21 64  1  0  0  0  0
 22 65  1  0  0  0  0
 23 66  1  0  0  0  0
 24 67  1  0  0  0  0
 25 68  1  0  0  0  0
 26 69  1  0  0  0  0
 27 70  1  0  0  0  0
 28 71  1  0  0  0  0
 31 72  1  0  0  0  0
 18 73  1  0  0  0  0
 18 74  2  0  0  0  0
 18 75  2  0  0  0  0
 73 76  1  0  0  0  0
M  END
> <OPENEYE_ISO_SMILES>
CC(C)C[C@@H](C(=O)N[C@@H](C[C@@H]1CCNC1=O)[C@H](O)S(=O)(=O)O)NC(=O)OCC(C)(C)S(=O)(=O)c2ccccc2

> <OPENEYE_INCHI>
InChI=1S/C24H37N3O10S2/c1-15(2)12-18(21(29)26-19(22(30)39(34,35)36)13-16-10-11-25-20(16)28)27-23(31)37-14-24(3,4)38(32,33)17-8-6-5-7-9-17/h5-9,15-16,18-19,22,30H,10-14H2,1-4H3,(H,25,28)(H,26,29)(H,27,31)(H,34,35,36)/t16-,18-,19-,22+/m0/s1

> <OPENEYE_INCHIKEY>
ATVOVJHWVGHVRU-JLEJFLCFSA-N

> <FORMULA>
C24H37N3O10S2

$$$$
