@<TRIPOS>MOLECULE
/home/pku/3cl/gett_pdb/7T45/7T45_mol2/ligand/7T45_EW9.pdb
 38 40 0 0 0
SMALL
GASTEIGER

@<TRIPOS>ATOM
      1  C10        7.3370   27.9110   25.4200 C.3   401  EW9401      0.0219
      2  C16        9.8760   26.0680   25.7830 C.3   401  EW9401      0.1705
      3  C20       12.2070   22.0900   26.9930 C.3   401  EW9401      0.1761
      4  C21       10.8890   21.5120   27.5190 C.2   401  EW9401      0.2614
      5  C23        9.0970   19.8220   27.4930 C.3   401  EW9401      0.1287
      6  C24        9.3170   18.4720   28.1230 C.3   401  EW9401      0.2036
      7  O25        8.0670   17.9710   28.5330 O.3   401  EW9401     -0.2185
      8  C26        8.0540   19.7340   26.2950 C.3   401  EW9401      0.0335
      9  C02        5.2110   29.3810   22.9400 C.2   401  EW9401      0.4046
     10  C04        3.5760   29.2510   21.0410 C.3   401  EW9401      0.1378
     11  C05        3.2320   30.7420   21.0530 C.3   401  EW9401      0.0437
     12  C06        3.6620   28.7090   19.6050 C.3   401  EW9401      0.0437
     13  C07        2.4290   28.4840   21.7970 C.3   401  EW9401      0.0437
     14  C09        6.8910   29.2810   24.8660 C.3   401  EW9401      0.0967
     15  C11        8.3260   27.1220   24.5580 C.3   401  EW9401      0.0102
     16  C12        8.5740   25.6480   25.0770 C.3   401  EW9401      0.0439
     17  C13        7.8320   27.1520   23.1370 C.3   401  EW9401      0.0219
     18  C14        7.5440   28.5610   22.5850 C.3   401  EW9401      0.0967
     19  C15        9.7760   27.4330   24.9560 C.3   401  EW9401      0.0439
     20  C18       11.1820   24.0090   25.7890 C.2   401  EW9401      0.4214
     21  C27        7.6770   21.0680   25.7560 C.3   401  EW9401      0.0818
     22  C28        6.7090   21.0190   24.5720 C.2   401  EW9401      0.2410
     23  C30        5.7320   22.6010   25.9760 C.3   401  EW9401      0.1156
     24  C31        6.8080   21.8590   26.7910 C.3   401  EW9401      0.0326
     25  C34       13.2990   21.7830   27.9890 C.3   401  EW9401      0.0312
     26  C35       14.6740   22.2750   27.5870 C.3   401  EW9401      0.0022
     27  C36       15.1250   21.6680   26.2860 C.3   401  EW9401      0.0001
     28  C37       15.7300   21.9960   28.6950 C.3   401  EW9401      0.0001
     29  N08        6.5850   29.3660   23.3760 N.am  401  EW9401     -0.2460
     30  N19       12.0270   23.5370   26.7210 N.am  401  EW9401     -0.1611
     31  N22       10.3350   20.3690   27.0130 N.am  401  EW9401     -0.2030
     32  N29        5.6450   21.8380   24.6970 N.am  401  EW9401     -0.2054
     33  O01        4.3190   29.7210   23.7200 O.2   401  EW9401     -0.2262
     34  O03        4.8820   28.9980   21.6490 O.3   401  EW9401     -0.4418
     35  O17       11.0650   25.3680   25.5360 O.3   401  EW9401     -0.4373
     36  O32        6.9080   20.2570   23.6040 O.2   401  EW9401     -0.2734
     37  O33       10.3140   22.1490   28.4320 O.2   401  EW9401     -0.2715
     38  O38       10.5010   23.2310   25.1200 O.2   401  EW9401     -0.2246
@<TRIPOS>BOND
     1    12    10    1
     2    10    11    1
     3    10    34    1
     4    10    13    1
     5    34     9    1
     6    18    17    1
     7    18    29    1
     8     9    29   am
     9     9    33    2
    10    17    15    1
    11    29    14    1
    12    36    22    2
    13    15    19    1
    14    15    16    1
    15    15     1    1
    16    22    32   am
    17    22    21    1
    18    32    23    1
    19    14     1    1
    20    19     2    1
    21    16     2    1
    22    38    20    2
    23    35     2    1
    24    35    20    1
    25    21     8    1
    26    21    24    1
    27    20    30   am
    28    23    24    1
    29    27    26    1
    30     8     5    1
    31    30     3    1
    32     3     4    1
    33     3    25    1
    34    31     5    1
    35    31     4   am
    36     5     6    1
    37     4    37    2
    38    26    25    1
    39    26    28    1
    40     6     7    1
