@<TRIPOS>MOLECULE
/home/pku/3cl/gett_pdb/7UJG/7UJG_mol2/ligand/7UJG_K36.pdb
 29 30 0 0 0
SMALL
GASTEIGER

@<TRIPOS>ATOM
      1  C7        13.4880   24.1200  -22.7600 C.3   401  K36401      0.2368
      2  O8        12.7580   23.4470  -23.8260 O.3   401  K36401     -0.4285
      3  C9        11.6280   22.7880  -23.4320 C.2   401  K36401      0.4218
      4  O10       10.5020   23.2820  -23.4920 O.2   401  K36401     -0.2245
      5  C1        12.9970   25.5410  -22.6740 C.ar  401  K36401      0.0213
      6  C2        12.6210   26.2380  -23.8290 C.ar  401  K36401     -0.0007
      7  C3        12.1870   27.5650  -23.7440 C.ar  401  K36401     -0.0002
      8  C4        12.1320   28.2070  -22.5000 C.ar  401  K36401     -0.0000
      9  C5        12.5250   27.5230  -21.3440 C.ar  401  K36401     -0.0002
     10  C6        12.9470   26.1950  -21.4330 C.ar  401  K36401     -0.0007
     11  N11       11.9520   21.5690  -22.9410 N.am  401  K36401     -0.1611
     12  C12       11.0200   20.6720  -22.2550 C.3   401  K36401      0.1761
     13  C17       10.5400   21.3620  -20.9640 C.2   401  K36401      0.2614
     14  O18       11.3590   21.8160  -20.1530 O.2   401  K36401     -0.2715
     15  C13       11.5700   19.2790  -21.8970 C.3   401  K36401      0.0312
     16  C14       12.0840   18.4420  -23.0860 C.3   401  K36401      0.0022
     17  C15       12.6560   17.0730  -22.7000 C.3   401  K36401      0.0001
     18  C16       10.9330   18.2600  -24.0880 C.3   401  K36401      0.0001
     19  N19        9.2280   21.4900  -20.7030 N.am  401  K36401     -0.2030
     20  C20        8.5950   22.1400  -19.5590 C.3   401  K36401      0.1287
     21  C21        7.8300   21.1010  -18.7240 C.3   401  K36401      0.2036
     22  O22        7.3580   21.7240  -17.5330 O.3   401  K36401     -0.2185
     23  C24        7.6460   23.2420  -20.0590 C.3   401  K36401      0.0335
     24  C25        8.3970   24.3670  -20.7760 C.3   401  K36401      0.0818
     25  C26        9.5040   25.0620  -19.9510 C.3   401  K36401      0.0326
     26  C27        9.4250   26.5470  -20.3580 C.3   401  K36401      0.1156
     27  N28        8.0370   26.6790  -20.8010 N.am  401  K36401     -0.2054
     28  C29        7.4690   25.5130  -21.1900 C.2   401  K36401      0.2410
     29  O30        6.3780   25.3990  -21.7680 O.2   401  K36401     -0.2734
@<TRIPOS>BOND
     1    18    16    1
     2     6     7   ar
     3     6     5   ar
     4     2     3    1
     5     2     1    1
     6     7     8   ar
     7     4     3    2
     8     3    11   am
     9    16    17    1
    10    16    15    1
    11    11    12    1
    12     1     5    1
    13     5    10   ar
    14     8     9   ar
    15    12    15    1
    16    12    13    1
    17    29    28    2
    18    10     9   ar
    19    28    27   am
    20    28    24    1
    21    13    19   am
    22    13    14    2
    23    27    26    1
    24    24    23    1
    25    24    25    1
    26    19    20    1
    27    26    25    1
    28    23    20    1
    29    20    21    1
    30    21    22    1
