RL9
  -OEChem-02242320043D

 36 38  0     0  0  0  0  0  0999 V2000
    6.8820    0.8390    0.3190 C   0  0  0  0  0  0  0  0  0  0  0  0
    6.2670    0.1900   -0.6820 C   0  0  0  0  0  0  0  0  0  0  0  0
    4.8370    0.1710   -0.3630 C   0  0  0  0  0  0  0  0  0  0  0  0
    3.7110   -0.3440   -1.0000 C   0  0  0  0  0  0  0  0  0  0  0  0
   -3.2350    0.1860   -0.7110 C   0  0  0  0  0  0  0  0  0  0  0  0
   -1.1470   -1.1100   -1.1630 C   0  0  0  0  0  0  0  0  0  0  0  0
    3.4430    0.9900    1.4410 C   0  0  0  0  0  0  0  0  0  0  0  0
    4.7040    0.8440    0.8680 C   0  0  0  0  0  0  0  0  0  0  0  0
    2.3410    0.4860    0.8150 C   0  0  0  0  0  0  0  0  0  0  0  0
    2.4600   -0.1860   -0.4100 C   0  0  0  0  0  0  0  0  0  0  0  0
    1.2570   -0.7260   -1.0740 C   0  0  0  0  0  0  0  0  0  0  0  0
   -5.2990    1.5290   -0.3420 C   0  0  0  0  0  0  0  0  0  0  0  0
   -4.3610    0.4660    0.0670 C   0  0  0  0  0  0  0  0  0  0  0  0
   -4.5960   -0.2660    1.2340 C   0  0  0  0  0  0  0  0  0  0  0  0
   -3.7170   -1.2580    1.6110 C   0  0  0  0  0  0  0  0  0  0  0  0
   -2.6010   -1.5310    0.8350 C   0  0  0  0  0  0  0  0  0  0  0  0
   -2.3630   -0.8080   -0.3240 C   0  0  0  0  0  0  0  0  0  0  0  0
   -1.7420   -2.5040    1.2100 F   0  0  0  0  0  0  0  0  0  0  0  0
    0.0460   -0.5740   -0.5030 N   0  0  0  0  0  0  0  0  0  0  0  0
    5.9640    1.2360    1.2520 N   0  0  0  0  0  0  0  0  0  0  0  0
   -6.3850    1.7960    0.4100 O   0  0  0  0  0  0  0  0  0  0  0  0
   -5.0930    2.1640   -1.3570 O   0  0  0  0  0  0  0  0  0  0  0  0
    1.3600   -1.3090   -2.1360 O   0  0  0  0  0  0  0  0  0  0  0  0
    7.9460    1.0160    0.3800 H   0  0  0  0  0  0  0  0  0  0  0  0
    6.7360   -0.2360   -1.5570 H   0  0  0  0  0  0  0  0  0  0  0  0
    3.8070   -0.8600   -1.9430 H   0  0  0  0  0  0  0  0  0  0  0  0
   -3.0510    0.7460   -1.6160 H   0  0  0  0  0  0  0  0  0  0  0  0
   -1.0450   -2.1890   -1.2780 H   0  0  0  0  0  0  0  0  0  0  0  0
   -1.2580   -0.6480   -2.1440 H   0  0  0  0  0  0  0  0  0  0  0  0
    3.3360    1.5050    2.3840 H   0  0  0  0  0  0  0  0  0  0  0  0
    1.3680    0.6050    1.2670 H   0  0  0  0  0  0  0  0  0  0  0  0
   -5.4650   -0.0540    1.8390 H   0  0  0  0  0  0  0  0  0  0  0  0
   -3.8980   -1.8240    2.5130 H   0  0  0  0  0  0  0  0  0  0  0  0
   -0.0360   -0.1090    0.3440 H   0  0  0  0  0  0  0  0  0  0  0  0
    6.1720    1.7180    2.0680 H   0  0  0  0  0  0  0  0  0  0  0  0
   -6.9700    2.5020    0.1020 H   0  0  0  0  0  0  0  0  0  0  0  0
  1  2  2  0  0  0  0
  2  3  1  0  0  0  0
  1 20  1  0  0  0  0
  3  4  2  0  0  0  0
  3  8  1  0  0  0  0
  8 20  1  0  0  0  0
  4 10  1  0  0  0  0
  7  8  2  0  0  0  0
 10 11  1  0  0  0  0
  9 10  2  0  0  0  0
 11 23  2  0  0  0  0
  7  9  1  0  0  0  0
 11 19  1  0  0  0  0
  6 19  1  0  0  0  0
 12 22  2  0  0  0  0
  6 17  1  0  0  0  0
 12 21  1  0  0  0  0
  5 17  2  0  0  0  0
  5 13  1  0  0  0  0
 12 13  1  0  0  0  0
 16 17  1  0  0  0  0
 13 14  2  0  0  0  0
 16 18  1  0  0  0  0
 15 16  2  0  0  0  0
 14 15  1  0  0  0  0
  1 24  1  0  0  0  0
  2 25  1  0  0  0  0
  4 26  1  0  0  0  0
  5 27  1  0  0  0  0
  6 28  1  0  0  0  0
  6 29  1  0  0  0  0
  7 30  1  0  0  0  0
  9 31  1  0  0  0  0
 14 32  1  0  0  0  0
 15 33  1  0  0  0  0
 19 34  1  0  0  0  0
 20 35  1  0  0  0  0
 21 36  1  0  0  0  0
M  END
> <OPENEYE_ISO_SMILES>
c1cc2c(cc[nH]2)cc1C(=O)NCc3cc(ccc3F)C(=O)O

> <OPENEYE_INCHI>
InChI=1S/C17H13FN2O3/c18-14-3-1-12(17(22)23)8-13(14)9-20-16(21)11-2-4-15-10(7-11)5-6-19-15/h1-8,19H,9H2,(H,20,21)(H,22,23)

> <OPENEYE_INCHIKEY>
JKFYNJOLPXQHQS-UHFFFAOYSA-N

> <FORMULA>
C17H13FN2O3

$$$$
