90H
  -OEChem-02242320013D

 77 79  0     1  0  0  0  0  0999 V2000
   -1.0900    1.0920   -0.2380 N   0  0  0  0  0  0  0  0  0  0  0  0
    2.5380    0.6500   -0.7710 N   0  0  0  0  0  0  0  0  0  0  0  0
   -0.6910    3.4530   -0.2370 C   0  0  1  0  0  0  0  0  0  0  0  0
   -1.1340    3.4770   -1.7040 C   0  0  0  0  0  0  0  0  0  0  0  0
   -2.3000    2.5710   -2.1040 C   0  0  0  0  0  0  0  0  0  0  0  0
   -1.0560    4.8150   -2.4420 C   0  0  0  0  0  0  0  0  0  0  0  0
   -1.1660    2.2790    0.6460 C   0  0  0  0  0  0  0  0  0  0  0  0
   -3.1250   -0.0120    0.6320 C   0  0  2  0  0  0  0  0  0  0  0  0
   -2.2510   -2.1830    1.5060 C   0  0  0  0  0  0  0  0  0  0  0  0
   -5.5040   -0.4800    0.3860 C   0  0  0  0  0  0  0  0  0  0  0  0
    3.7010    0.2820    0.0390 C   0  0  1  0  0  0  0  0  0  0  0  0
    7.7420    0.0950    1.8040 C   0  0  0  0  0  0  0  0  0  0  0  0
    4.6000   -0.6640   -0.7600 C   0  0  0  0  0  0  0  0  0  0  0  0
    3.8310   -1.9460   -1.0840 C   0  0  2  0  0  0  0  0  0  0  0  0
    3.6300   -4.1770   -0.2290 C   0  0  0  0  0  0  0  0  0  0  0  0
    1.2560    0.8360    1.0310 O   0  0  0  0  0  0  0  0  0  0  0  0
    1.3560    0.9090   -0.1760 C   0  0  0  0  0  0  0  0  0  0  0  0
    0.1600    1.2880   -1.0090 C   0  0  2  0  0  0  0  0  0  0  0  0
    0.1850    2.7980   -1.3320 C   0  0  2  0  0  0  0  0  0  0  0  0
   -1.9590    0.0650   -0.3190 C   0  0  0  0  0  0  0  0  0  0  0  0
   -2.7090   -0.7750    1.8910 C   0  0  0  0  0  0  0  0  0  0  0  0
   -1.5590   -0.0350    2.5780 C   0  0  0  0  0  0  0  0  0  0  0  0
   -3.8990   -0.8690    2.8470 C   0  0  0  0  0  0  0  0  0  0  0  0
   -4.2380   -0.7100   -0.0160 N   0  0  0  0  0  0  0  0  0  0  0  0
   -6.6490   -1.1990   -0.2810 C   0  0  0  0  0  0  0  0  0  0  0  0
   -7.8550   -0.7980    0.3040 F   0  0  0  0  0  0  0  0  0  0  0  0
   -6.6650   -0.8860   -1.6450 F   0  0  0  0  0  0  0  0  0  0  0  0
   -6.4890   -2.5800   -0.1220 F   0  0  0  0  0  0  0  0  0  0  0  0
   -5.7220    0.3050    1.2840 O   0  0  0  0  0  0  0  0  0  0  0  0
   -1.8010   -0.7990   -1.1560 O   0  0  0  0  0  0  0  0  0  0  0  0
    4.4860    1.5420    0.4080 C   0  0  1  0  0  0  0  0  0  0  0  0
    3.6140    2.4760    1.0470 O   0  0  0  0  0  0  0  0  0  0  0  0
    5.6080    1.1780    1.3470 C   0  0  0  0  0  0  0  0  0  0  0  0
    6.7030    0.5500    0.8770 N   0  0  0  0  0  0  0  0  0  0  0  0
    5.5240    1.4510    2.5260 O   0  0  0  0  0  0  0  0  0  0  0  0
    3.4730   -2.7060    0.2140 C   0  0  0  0  0  0  0  0  0  0  0  0
    4.5820   -4.1510   -1.3450 N   0  0  0  0  0  0  0  0  0  0  0  0
    4.7100   -2.9110   -1.8490 C   0  0  0  0  0  0  0  0  0  0  0  0
    5.4260   -2.6110   -2.7800 O   0  0  0  0  0  0  0  0  0  0  0  0
    2.6180    0.7090   -1.7360 H   0  0  0  0  0  0  0  0  0  0  0  0
   -0.3920    4.3730    0.2640 H   0  0  0  0  0  0  0  0  0  0  0  0
   -3.1660    3.1820   -2.3550 H   0  0  0  0  0  0  0  0  0  0  0  0
   -2.0150    1.9720   -2.9700 H   0  0  0  0  0  0  0  0  0  0  0  0
   -2.5490    1.9110   -1.2730 H   0  0  0  0  0  0  0  0  0  0  0  0
   -0.5370    5.5440   -1.8200 H   0  0  0  0  0  0  0  0  0  0  0  0
   -0.5130    4.6830   -3.3780 H   0  0  0  0  0  0  0  0  0  0  0  0
   -2.0640    5.1720   -2.6550 H   0  0  0  0  0  0  0  0  0  0  0  0
   -2.1910    2.4420    0.9760 H   0  0  0  0  0  0  0  0  0  0  0  0
   -0.5040    2.1560    1.5030 H   0  0  0  0  0  0  0  0  0  0  0  0
   -3.4390    0.9960    0.9040 H   0  0  0  0  0  0  0  0  0  0  0  0
   -1.4030   -2.1150    0.8240 H   0  0  0  0  0  0  0  0  0  0  0  0
   -1.9540   -2.7260    2.4030 H   0  0  0  0  0  0  0  0  0  0  0  0
   -3.0690   -2.7100    1.0160 H   0  0  0  0  0  0  0  0  0  0  0  0
    3.3670   -0.2170    0.9490 H   0  0  0  0  0  0  0  0  0  0  0  0
    8.1420    0.9510    2.3490 H   0  0  0  0  0  0  0  0  0  0  0  0
    7.3130   -0.6160    2.5100 H   0  0  0  0  0  0  0  0  0  0  0  0
    8.5430   -0.3860    1.2440 H   0  0  0  0  0  0  0  0  0  0  0  0
    4.9050   -0.1780   -1.6870 H   0  0  0  0  0  0  0  0  0  0  0  0
    5.4840   -0.9090   -0.1710 H   0  0  0  0  0  0  0  0  0  0  0  0
    2.9300   -1.7160   -1.6530 H   0  0  0  0  0  0  0  0  0  0  0  0
    4.0260   -4.7780    0.5910 H   0  0  0  0  0  0  0  0  0  0  0  0
    2.6710   -4.5760   -0.5580 H   0  0  0  0  0  0  0  0  0  0  0  0
    0.1360    0.7020   -1.9280 H   0  0  0  0  0  0  0  0  0  0  0  0
    1.1280    3.2410   -1.6550 H   0  0  0  0  0  0  0  0  0  0  0  0
   -1.8950    0.9580    2.8780 H   0  0  0  0  0  0  0  0  0  0  0  0
   -1.2430   -0.5930    3.4590 H   0  0  0  0  0  0  0  0  0  0  0  0
   -0.7220    0.0580    1.8870 H   0  0  0  0  0  0  0  0  0  0  0  0
   -4.7180   -1.3960    2.3580 H   0  0  0  0  0  0  0  0  0  0  0  0
   -3.6020   -1.4120    3.7440 H   0  0  0  0  0  0  0  0  0  0  0  0
   -4.2250    0.1340    3.1220 H   0  0  0  0  0  0  0  0  0  0  0  0
   -4.0640   -1.3380   -0.7350 H   0  0  0  0  0  0  0  0  0  0  0  0
    4.8990    1.9900   -0.4950 H   0  0  0  0  0  0  0  0  0  0  0  0
    2.8670    2.7550    0.5000 H   0  0  0  0  0  0  0  0  0  0  0  0
    6.8040    0.3990   -0.0760 H   0  0  0  0  0  0  0  0  0  0  0  0
    4.1730   -2.4620    1.0140 H   0  0  0  0  0  0  0  0  0  0  0  0
    2.4470   -2.4970    0.5180 H   0  0  0  0  0  0  0  0  0  0  0  0
    5.0570   -4.9290   -1.6770 H   0  0  0  0  0  0  0  0  0  0  0  0
 12 34  1  0  0  0  0
 33 34  1  0  0  0  0
 33 35  2  0  0  0  0
 31 33  1  0  0  0  0
 31 32  1  0  0  0  0
 11 31  1  0  0  0  0
  4  6  1  0  0  0  0
  2 11  1  0  0  0  0
 11 13  1  0  0  0  0
  4 19  1  0  0  0  0
  3 19  1  0  0  0  0
 18 19  1  0  0  0  0
  2 17  1  0  0  0  0
 13 14  1  0  0  0  0
  3  4  1  0  0  0  0
  4  5  1  0  0  0  0
 16 17  2  0  0  0  0
 17 18  1  0  0  0  0
  3  7  1  0  0  0  0
  1 18  1  0  0  0  0
 14 36  1  0  0  0  0
 14 38  1  0  0  0  0
 15 36  1  0  0  0  0
  1  7  1  0  0  0  0
  1 20  1  0  0  0  0
 38 39  2  0  0  0  0
 37 38  1  0  0  0  0
 15 37  1  0  0  0  0
 20 30  2  0  0  0  0
  8 20  1  0  0  0  0
  9 21  1  0  0  0  0
  8 21  1  0  0  0  0
  8 24  1  0  0  0  0
 21 22  1  0  0  0  0
 21 23  1  0  0  0  0
 10 24  1  0  0  0  0
 10 29  2  0  0  0  0
 10 25  1  0  0  0  0
 25 27  1  0  0  0  0
 25 28  1  0  0  0  0
 25 26  1  0  0  0  0
  2 40  1  0  0  0  0
  3 41  1  0  0  0  0
  5 42  1  0  0  0  0
  5 43  1  0  0  0  0
  5 44  1  0  0  0  0
  6 45  1  0  0  0  0
  6 46  1  0  0  0  0
  6 47  1  0  0  0  0
  7 48  1  0  0  0  0
  7 49  1  0  0  0  0
  8 50  1  0  0  0  0
  9 51  1  0  0  0  0
  9 52  1  0  0  0  0
  9 53  1  0  0  0  0
 11 54  1  0  0  0  0
 12 55  1  0  0  0  0
 12 56  1  0  0  0  0
 12 57  1  0  0  0  0
 13 58  1  0  0  0  0
 13 59  1  0  0  0  0
 14 60  1  0  0  0  0
 15 61  1  0  0  0  0
 15 62  1  0  0  0  0
 18 63  1  0  0  0  0
 19 64  1  0  0  0  0
 22 65  1  0  0  0  0
 22 66  1  0  0  0  0
 22 67  1  0  0  0  0
 23 68  1  0  0  0  0
 23 69  1  0  0  0  0
 23 70  1  0  0  0  0
 24 71  1  0  0  0  0
 31 72  1  0  0  0  0
 32 73  1  0  0  0  0
 34 74  1  0  0  0  0
 36 75  1  0  0  0  0
 36 76  1  0  0  0  0
 37 77  1  0  0  0  0
M  END
> <OPENEYE_ISO_SMILES>
CC1([C@@H]2[C@H]1[C@H](N(C2)C(=O)[C@H](C(C)(C)C)NC(=O)C(F)(F)F)C(=O)N[C@@H](C[C@@H]3CCNC3=O)[C@H](C(=O)NC)O)C

> <OPENEYE_INCHI>
InChI=1S/C25H38F3N5O6/c1-23(2,3)17(32-22(39)25(26,27)28)21(38)33-10-12-14(24(12,4)5)15(33)19(36)31-13(16(34)20(37)29-6)9-11-7-8-30-18(11)35/h11-17,34H,7-10H2,1-6H3,(H,29,37)(H,30,35)(H,31,36)(H,32,39)/t11-,12-,13-,14-,15-,16+,17+/m0/s1

> <OPENEYE_INCHIKEY>
QDKCXRMRZLIIFP-OGEQHFGCSA-N

> <FORMULA>
C25H38F3N5O6

$$$$
