@<TRIPOS>MOLECULE
/home/pku/3cl/gett_pdb/5SSA/5SSA_mol2/ligand/5SSA_RM6.pdb
 36 38 0 0 0
SMALL
GASTEIGER

@<TRIPOS>ATOM
      1  C18      -47.9130  -29.0790    6.2280 C.ar  201  RM6201      0.0427
      2  C17      -49.2900  -29.2400    6.4420 C.ar  201  RM6201      0.0374
      3  C15      -51.7790  -29.5100    7.1660 C.ar  201  RM6201     -0.0231
      4  C14      -51.5440  -29.5890    5.7730 C.ar  201  RM6201     -0.0469
      5  C13      -50.1510  -29.4370    5.3700 C.ar  201  RM6201     -0.0072
      6  C12      -49.5920  -29.4660    4.0840 C.ar  201  RM6201     -0.0229
      7  C11      -48.2170  -29.2740    3.9480 C.ar  201  RM6201      0.1259
      8  C10      -47.6220  -29.3640    2.5200 C.2   201  RM6201      0.2624
      9  C02      -44.8640  -35.2340   -1.9460 C.2   201  RM6201      0.0420
     10  C03      -44.3180  -34.1890   -0.9290 C.3   201  RM6201     -0.0103
     11  C04      -45.1580  -32.9650   -0.7750 C.3   201  RM6201     -0.0354
     12  C05      -44.3350  -31.8170   -0.2930 C.3   201  RM6201     -0.0456
     13  C06      -45.1040  -31.6950    0.9670 C.3   201  RM6201     -0.0249
     14  C07      -45.9240  -32.8550    0.5110 C.3   201  RM6201     -0.0456
     15  C08      -45.7360  -30.3050    1.0800 C.3   201  RM6201      0.0148
     16  N09      -46.3660  -30.1030    2.3840 N.am  201  RM6201     -0.3098
     17  N19      -47.4120  -29.1100    4.9940 N.ar  201  RM6201     -0.2492
     18  O01      -46.0770  -35.2470   -2.2600 O.co2 201  RM6201     -0.5498
     19  O20      -48.1860  -28.9430    1.5860 O.2   201  RM6201     -0.2685
     20  O21      -44.0660  -36.0820   -2.4610 O.co2 201  RM6201     -0.5498
     21  S16      -50.2670  -29.2490    7.8580 S.2   201  RM6201     -0.0951
     22 H181      -47.3520  -28.9610    6.9550 H     201  RM6201      0.0841
     23 H151      -52.5900  -29.5940    7.6080 H     201  RM6201      0.0694
     24 H141      -52.2380  -29.7270    5.1670 H     201  RM6201      0.0629
     25 H121      -50.1370  -29.5890    3.3380 H     201  RM6201      0.0647
     26 H032      -43.4350  -33.9290   -1.2200 H     201  RM6201      0.0327
     27 H031      -44.2320  -34.6290   -0.0800 H     201  RM6201      0.0327
     28 H041      -45.7260  -32.8120   -1.5570 H     201  RM6201      0.0304
     29 H051      -44.4300  -30.9790   -0.7220 H     201  RM6201      0.0271
     30 H052      -43.4210  -32.0610   -0.1910 H     201  RM6201      0.0271
     31 H061      -44.5450  -31.9140    1.7000 H     201  RM6201      0.0316
     32 H071      -45.7950  -33.6300    1.0740 H     201  RM6201      0.0271
     33 H072      -46.8450  -32.6400    0.3470 H     201  RM6201      0.0271
     34 H081      -46.4120  -30.1930    0.3980 H     201  RM6201      0.0465
     35 H082      -45.0500  -29.6280    0.9600 H     201  RM6201      0.0465
     36 H091      -45.9810  -30.4010    3.0930 H     201  RM6201      0.1491
@<TRIPOS>UNITY_ATOM_ATTR
18 1
charge -1
@<TRIPOS>BOND
     1    20     9   ar
     2    18     9   ar
     3     9    10    1
     4    28    11    1
     5    26    10    1
     6    10    11    1
     7    10    27    1
     8    11    12    1
     9    11    14    1
    10    29    12    1
    11    12    30    1
    12    12    13    1
    13    33    14    1
    14    34    15    1
    15    14    13    1
    16    14    32    1
    17    35    15    1
    18    13    15    1
    19    13    31    1
    20    15    16    1
    21    19     8    2
    22    16     8   am
    23    16    36    1
    24     8     7    1
    25    25     6    1
    26     7     6   ar
    27     7    17   ar
    28     6     5   ar
    29    17     1   ar
    30    24     4    1
    31     5     4   ar
    32     5     2   ar
    33     4     3   ar
    34     1     2   ar
    35     1    22    1
    36     2    21   ar
    37     3    23    1
    38     3    21   ar
