W34
  -OEChem-02242320043D

 32 33  0     1  0  0  0  0  0999 V2000
   -1.2940    0.7490    0.2080 C   0  0  1  0  0  0  0  0  0  0  0  0
    0.2090    0.7920    0.1090 C   0  0  0  0  0  0  0  0  0  0  0  0
    0.8550    2.0030   -0.0600 C   0  0  0  0  0  0  0  0  0  0  0  0
    2.2340    2.0460   -0.1520 C   0  0  0  0  0  0  0  0  0  0  0  0
    2.9700    0.8790   -0.0730 C   0  0  0  0  0  0  0  0  0  0  0  0
    4.4650   -1.3680    0.0730 C   0  0  0  0  0  0  0  0  0  0  0  0
   -1.3080   -1.1470   -1.3450 N   0  0  0  0  0  0  0  0  0  0  0  0
   -1.8770    0.1830   -1.0900 C   0  0  1  0  0  0  0  0  0  0  0  0
   -1.7070   -0.1530    1.3760 C   0  0  0  0  0  0  0  0  0  0  0  0
   -3.2340   -0.2520    1.4190 C   0  0  0  0  0  0  0  0  0  0  0  0
   -3.7130   -0.7560    0.1700 O   0  0  0  0  0  0  0  0  0  0  0  0
   -3.3980    0.0710   -0.9520 C   0  0  0  0  0  0  0  0  0  0  0  0
    0.9400   -0.3770    0.1930 C   0  0  0  0  0  0  0  0  0  0  0  0
    2.3230   -0.3370    0.0970 C   0  0  0  0  0  0  0  0  0  0  0  0
    3.0450   -1.4850    0.1800 O   0  0  0  0  0  0  0  0  0  0  0  0
   -1.6780    1.7560    0.3720 H   0  0  0  0  0  0  0  0  0  0  0  0
    0.2820    2.9160   -0.1220 H   0  0  0  0  0  0  0  0  0  0  0  0
    2.7370    2.9930   -0.2850 H   0  0  0  0  0  0  0  0  0  0  0  0
    4.0470    0.9140   -0.1450 H   0  0  0  0  0  0  0  0  0  0  0  0
    4.9190   -2.3560    0.1550 H   0  0  0  0  0  0  0  0  0  0  0  0
    4.7220   -0.9300   -0.8910 H   0  0  0  0  0  0  0  0  0  0  0  0
    4.8390   -0.7290    0.8730 H   0  0  0  0  0  0  0  0  0  0  0  0
   -1.7690   -1.5940   -2.1240 H   0  0  0  0  0  0  0  0  0  0  0  0
   -0.3120   -1.0910   -1.4980 H   0  0  0  0  0  0  0  0  0  0  0  0
   -1.6340    0.8480   -1.9190 H   0  0  0  0  0  0  0  0  0  0  0  0
   -1.2810   -1.1470    1.2370 H   0  0  0  0  0  0  0  0  0  0  0  0
   -1.3430    0.2730    2.3110 H   0  0  0  0  0  0  0  0  0  0  0  0
   -3.5320   -0.9260    2.2210 H   0  0  0  0  0  0  0  0  0  0  0  0
   -3.6570    0.7370    1.5990 H   0  0  0  0  0  0  0  0  0  0  0  0
   -3.8230    1.0640   -0.8030 H   0  0  0  0  0  0  0  0  0  0  0  0
   -3.8140   -0.3710   -1.8570 H   0  0  0  0  0  0  0  0  0  0  0  0
    0.4350   -1.3220    0.3260 H   0  0  0  0  0  0  0  0  0  0  0  0
  6 15  1  0  0  0  0
 14 15  1  0  0  0  0
 13 14  2  0  0  0  0
  5 14  1  0  0  0  0
  9 10  1  0  0  0  0
  1  9  1  0  0  0  0
  2 13  1  0  0  0  0
  4  5  2  0  0  0  0
 10 11  1  0  0  0  0
  2  3  2  0  0  0  0
  1  2  1  0  0  0  0
  3  4  1  0  0  0  0
  1  8  1  0  0  0  0
 11 12  1  0  0  0  0
  7  8  1  0  0  0  0
  8 12  1  0  0  0  0
  1 16  1  0  0  0  0
  3 17  1  0  0  0  0
  4 18  1  0  0  0  0
  5 19  1  0  0  0  0
  6 20  1  0  0  0  0
  6 21  1  0  0  0  0
  6 22  1  0  0  0  0
  7 23  1  0  0  0  0
  7 24  1  0  0  0  0
  8 25  1  0  0  0  0
  9 26  1  0  0  0  0
  9 27  1  0  0  0  0
 10 28  1  0  0  0  0
 10 29  1  0  0  0  0
 12 30  1  0  0  0  0
 12 31  1  0  0  0  0
 13 32  1  0  0  0  0
M  END
> <OPENEYE_ISO_SMILES>
COc1cccc(c1)[C@@H]2CCOC[C@@H]2N

> <OPENEYE_INCHI>
InChI=1S/C12H17NO2/c1-14-10-4-2-3-9(7-10)11-5-6-15-8-12(11)13/h2-4,7,11-12H,5-6,8,13H2,1H3/t11-,12-/m0/s1

> <OPENEYE_INCHIKEY>
RNGNQMRREZVUSH-RYUDHWBXSA-N

> <FORMULA>
C12H17NO2

$$$$
