2XI
  -OEChem-02242320003D

 63 64  0     1  0  0  0  0  0999 V2000
   -0.2240    3.0770    2.3660 C   0  0  0  0  0  0  0  0  0  0  0  0
   -1.0290    2.8320    0.1740 N   0  0  0  0  0  0  0  0  0  0  0  0
   -0.3290    1.7270    0.0070 C   0  0  0  0  0  0  0  0  0  0  0  0
   -0.9900   -0.8440    0.1450 C   0  0  0  0  0  0  0  0  0  0  0  0
   -3.1810   -0.2050    0.8800 C   0  0  0  0  0  0  0  0  0  0  0  0
   -5.4090    1.4320   -0.3340 C   0  0  0  0  0  0  0  0  0  0  0  0
   -5.9880   -0.9650    0.0660 C   0  0  0  0  0  0  0  0  0  0  0  0
   -5.3430   -0.2020   -2.2240 C   0  0  0  0  0  0  0  0  0  0  0  0
   -1.4590   -0.9440   -1.1580 C   0  0  0  0  0  0  0  0  0  0  0  0
    2.2250   -2.7010    0.7630 C   0  0  1  0  0  0  0  0  0  0  0  0
    3.5290    1.7150   -2.4550 C   0  0  0  0  0  0  0  0  0  0  0  0
    4.2290    1.3420   -1.1470 C   0  0  0  0  0  0  0  0  0  0  0  0
    5.0330    0.0570   -1.3480 C   0  0  0  0  0  0  0  0  0  0  0  0
    5.1710    2.4740   -0.7320 C   0  0  0  0  0  0  0  0  0  0  0  0
    2.2850    0.1790   -0.2490 C   0  0  0  0  0  0  0  0  0  0  0  0
    1.2540   -0.0360    0.8280 C   0  0  1  0  0  0  0  0  0  0  0  0
    0.4610    1.2300    1.0260 C   0  0  0  0  0  0  0  0  0  0  0  0
    0.5230    1.9160    2.2290 C   0  0  0  0  0  0  0  0  0  0  0  0
   -0.9980    3.5080    1.3060 C   0  0  0  0  0  0  0  0  0  0  0  0
   -1.8570   -0.4760    1.1650 C   0  0  0  0  0  0  0  0  0  0  0  0
   -3.6460   -0.3100   -0.4180 C   0  0  0  0  0  0  0  0  0  0  0  0
   -5.0910   -0.0120   -0.7260 C   0  0  0  0  0  0  0  0  0  0  0  0
   -2.7850   -0.6760   -1.4360 C   0  0  0  0  0  0  0  0  0  0  0  0
    0.8140   -2.3830    0.3400 C   0  0  0  0  0  0  0  0  0  0  0  0
    2.3180   -2.6760    2.2900 C   0  0  0  0  0  0  0  0  0  0  0  0
    3.2260    1.1330   -0.1000 N   0  0  0  0  0  0  0  0  0  0  0  0
    0.3520   -1.1200    0.4310 N   0  0  0  0  0  0  0  0  0  0  0  0
    2.5850   -3.9990    0.2850 O   0  0  0  0  0  0  0  0  0  0  0  0
    0.0940   -3.2630   -0.0810 O   0  0  0  0  0  0  0  0  0  0  0  0
    2.2680   -0.5050   -1.2500 O   0  0  0  0  0  0  0  0  0  0  0  0
   -0.2030    3.6340    3.2910 H   0  0  0  0  0  0  0  0  0  0  0  0
   -0.3800    1.2010   -0.9350 H   0  0  0  0  0  0  0  0  0  0  0  0
   -3.8560    0.0820    1.6730 H   0  0  0  0  0  0  0  0  0  0  0  0
   -5.2300    1.5670    0.7320 H   0  0  0  0  0  0  0  0  0  0  0  0
   -4.7700    2.1110   -0.8990 H   0  0  0  0  0  0  0  0  0  0  0  0
   -6.4540    1.6470   -0.5570 H   0  0  0  0  0  0  0  0  0  0  0  0
   -7.0330   -0.7500   -0.1560 H   0  0  0  0  0  0  0  0  0  0  0  0
   -5.7610   -1.9940   -0.2130 H   0  0  0  0  0  0  0  0  0  0  0  0
   -5.8080   -0.8300    1.1330 H   0  0  0  0  0  0  0  0  0  0  0  0
   -4.7040    0.4770   -2.7880 H   0  0  0  0  0  0  0  0  0  0  0  0
   -5.1160   -1.2310   -2.5030 H   0  0  0  0  0  0  0  0  0  0  0  0
   -6.3880    0.0130   -2.4460 H   0  0  0  0  0  0  0  0  0  0  0  0
   -0.7860   -1.2300   -1.9540 H   0  0  0  0  0  0  0  0  0  0  0  0
    2.9050   -1.9580    0.3450 H   0  0  0  0  0  0  0  0  0  0  0  0
    4.2750    1.8720   -3.2350 H   0  0  0  0  0  0  0  0  0  0  0  0
    2.8580    0.9090   -2.7510 H   0  0  0  0  0  0  0  0  0  0  0  0
    2.9560    2.6320   -2.3120 H   0  0  0  0  0  0  0  0  0  0  0  0
    5.7790    0.2130   -2.1270 H   0  0  0  0  0  0  0  0  0  0  0  0
    5.5320   -0.2090   -0.4160 H   0  0  0  0  0  0  0  0  0  0  0  0
    4.3620   -0.7500   -1.6440 H   0  0  0  0  0  0  0  0  0  0  0  0
    4.5970    3.3900   -0.5890 H   0  0  0  0  0  0  0  0  0  0  0  0
    5.6690    2.2080    0.2000 H   0  0  0  0  0  0  0  0  0  0  0  0
    5.9170    2.6300   -1.5110 H   0  0  0  0  0  0  0  0  0  0  0  0
    1.7520   -0.3020    1.7610 H   0  0  0  0  0  0  0  0  0  0  0  0
    1.1370    1.5550    3.0410 H   0  0  0  0  0  0  0  0  0  0  0  0
   -1.5860    4.4090    1.4060 H   0  0  0  0  0  0  0  0  0  0  0  0
   -1.4970   -0.4020    2.1810 H   0  0  0  0  0  0  0  0  0  0  0  0
   -3.1510   -0.7570   -2.4490 H   0  0  0  0  0  0  0  0  0  0  0  0
    3.3580   -2.8010    2.5930 H   0  0  0  0  0  0  0  0  0  0  0  0
    1.9440   -1.7220    2.6610 H   0  0  0  0  0  0  0  0  0  0  0  0
    1.7190   -3.4870    2.7040 H   0  0  0  0  0  0  0  0  0  0  0  0
    3.2400    1.6790    0.7010 H   0  0  0  0  0  0  0  0  0  0  0  0
    3.4820   -4.2700    0.5210 H   0  0  0  0  0  0  0  0  0  0  0  0
  6 22  1  0  0  0  0
  7 22  1  0  0  0  0
 11 12  1  0  0  0  0
  8 22  1  0  0  0  0
 21 22  1  0  0  0  0
 21 23  2  0  0  0  0
  9 23  1  0  0  0  0
  5 21  1  0  0  0  0
 12 14  1  0  0  0  0
 12 13  1  0  0  0  0
 12 26  1  0  0  0  0
  4  9  2  0  0  0  0
 15 26  1  0  0  0  0
  5 20  2  0  0  0  0
  4 20  1  0  0  0  0
  4 27  1  0  0  0  0
 15 16  1  0  0  0  0
 15 30  2  0  0  0  0
 10 25  1  0  0  0  0
 16 27  1  0  0  0  0
 24 27  1  0  0  0  0
 16 17  1  0  0  0  0
 24 29  2  0  0  0  0
 10 24  1  0  0  0  0
 10 28  1  0  0  0  0
 17 18  2  0  0  0  0
  3 17  1  0  0  0  0
  1 18  1  0  0  0  0
  2  3  2  0  0  0  0
  1 19  2  0  0  0  0
  2 19  1  0  0  0  0
  1 31  1  0  0  0  0
  3 32  1  0  0  0  0
  5 33  1  0  0  0  0
  6 34  1  0  0  0  0
  6 35  1  0  0  0  0
  6 36  1  0  0  0  0
  7 37  1  0  0  0  0
  7 38  1  0  0  0  0
  7 39  1  0  0  0  0
  8 40  1  0  0  0  0
  8 41  1  0  0  0  0
  8 42  1  0  0  0  0
  9 43  1  0  0  0  0
 10 44  1  0  0  0  0
 11 45  1  0  0  0  0
 11 46  1  0  0  0  0
 11 47  1  0  0  0  0
 13 48  1  0  0  0  0
 13 49  1  0  0  0  0
 13 50  1  0  0  0  0
 14 51  1  0  0  0  0
 14 52  1  0  0  0  0
 14 53  1  0  0  0  0
 16 54  1  0  0  0  0
 18 55  1  0  0  0  0
 19 56  1  0  0  0  0
 20 57  1  0  0  0  0
 23 58  1  0  0  0  0
 25 59  1  0  0  0  0
 25 60  1  0  0  0  0
 25 61  1  0  0  0  0
 26 62  1  0  0  0  0
 28 63  1  0  0  0  0
M  END
> <OPENEYE_ISO_SMILES>
C[C@H](C(=O)N(c1ccc(cc1)C(C)(C)C)[C@H](c2cccnc2)C(=O)NC(C)(C)C)O

> <OPENEYE_INCHI>
InChI=1S/C24H33N3O3/c1-16(28)22(30)27(19-12-10-18(11-13-19)23(2,3)4)20(17-9-8-14-25-15-17)21(29)26-24(5,6)7/h8-16,20,28H,1-7H3,(H,26,29)/t16-,20-/m1/s1

> <OPENEYE_INCHIKEY>
VNQJAMKKDIWKCG-OXQOHEQNSA-N

> <FORMULA>
C24H33N3O3

$$$$
