@<TRIPOS>MOLECULE
/home/pku/3cl/gett_pdb/5RTZ/5RTZ_mol2/ligand/5RTZ_FHB.pdb
 30 24 0 0 0
SMALL
GASTEIGER

@<TRIPOS>ATOM
      1  C1       -47.3890  -29.2080    4.0100 C.2   201  FHB201     -0.0549
      2  C1       -49.3240  -29.0420    5.1280 C.2   201  FHB201     -0.0334
      3  C2       -48.4700  -29.0950    3.2040 C.3   201  FHB201      0.0211
      4  C2       -49.4240  -29.0290    3.7350 C.3   201  FHB201      0.0046
      5  C3       -49.7300  -28.9980    3.7300 C.3   201  FHB201     -0.0309
      6  C3       -48.2820  -29.1090    2.9550 C.3   201  FHB201     -0.0027
      7  F3       -50.7860  -28.8470    2.8970 F     201  FHB201      0.0000
      8  F3       -48.2730  -29.0740    1.5760 F     201  FHB201      0.0000
      9  C4       -49.9400  -29.0280    5.0770 C.2   201  FHB201     -0.0030
     10  C4       -47.0870  -29.2070    3.5780 C.2   201  FHB201     -0.0308
     11  O4       -51.2620  -28.9510    5.4790 O.3   201  FHB201     -0.1915
     12  O4       -45.9470  -29.2990    2.7540 O.3   201  FHB201     -0.1919
     13  C5       -48.8410  -29.1350    5.9200 C.3   201  FHB201     -0.0048
     14  C5       -47.0010  -29.2140    4.9540 C.3   201  FHB201     -0.0088
     15  C6       -47.5500  -29.2170    5.3720 C.3   201  FHB201     -0.0266
     16  C6       -48.1000  -29.1390    5.7510 C.3   201  FHB201     -0.0263
     17  C7       -46.0450  -29.3450    3.2940 C.3   201  FHB201      0.1513
     18  C7       -50.5530  -29.0020    5.9290 C.3   201  FHB201      0.1555
     19  O1       -46.0520  -29.5160    2.0900 O.3   201  FHB201     -0.0347
     20  O1       -51.5830  -29.0880    5.2240 O.3   201  FHB201     -0.0347
     21  O2       -44.9550  -29.4140    3.8850 O.co2 201  FHB201     -1.0000
     22  O2       -50.4650  -28.9750    7.1990 O.co2 201  FHB201     -1.0000
     23  H2       -48.3390  -29.0660    2.2850 H     201  FHB201      0.0358
     24  H2       -50.2640  -28.9560    3.3460 H     201  FHB201      0.0309
     25  HO4      -51.2980  -28.9130    6.3270 H     201  FHB201      0.0711
     26  HO4      -45.3780  -28.7130    2.9910 H     201  FHB201      0.0707
     27  H5       -48.9610  -29.1690    6.8420 H     201  FHB201      0.0358
     28  H5       -46.1640  -29.2940    5.3510 H     201  FHB201      0.0355
     29  H6       -46.8130  -29.3310    5.9280 H     201  FHB201      0.0313
     30  H6       -48.0290  -29.1730    6.6780 H     201  FHB201      0.0313
@<TRIPOS>UNITY_ATOM_ATTR
21 1
charge -1
22 1
charge -1
@<TRIPOS>BOND
     1    19    12    1
     2    23     6    1
     3    12    17    1
     4     6    10    1
     5    26    17    1
     6     3     4    1
     7     3     1    1
     8    17    10    1
     9    24     5    1
    10    10     1    2
    11     1    14    1
    12    14    28    1
    13    14    15    1
    14     9     2    2
    15     9    18    1
    16     2    13    1
    17    20    11    1
    18    15    16    1
    19    15    29    1
    20    11    18    1
    21    16    13    1
    22    16    30    1
    23    13    27    1
    24    18    25    1
