CEV
  -OEChem-02242320023D

 36 36  0     1  0  0  0  0  0999 V2000
    4.3110   -0.3740   -0.1830 O   0  0  0  0  0  0  0  0  0  0  0  0
    5.5260    0.2720    0.2810 C   0  0  0  0  0  0  0  0  0  0  0  0
    6.7320   -0.6040   -0.0630 C   0  0  0  0  0  0  0  0  0  0  0  0
   -0.8680   -1.2750    0.2500 N   0  0  0  0  0  0  0  0  0  0  0  0
   -0.6250   -0.0300   -0.4930 C   0  0  1  0  0  0  0  0  0  0  0  0
   -1.7670    0.9520   -0.2280 C   0  0  0  0  0  0  0  0  0  0  0  0
   -3.0690    0.3870   -0.8000 C   0  0  1  0  0  0  0  0  0  0  0  0
    0.6970    0.5880   -0.0330 C   0  0  0  0  0  0  0  0  0  0  0  0
   -3.5080   -0.8300   -0.0150 C   0  0  0  0  0  0  0  0  0  0  0  0
   -3.0280   -1.9380   -0.1260 O   0  0  0  0  0  0  0  0  0  0  0  0
   -4.5070   -0.5040    0.8230 N   0  0  0  0  0  0  0  0  0  0  0  0
   -4.8460    0.9200    0.7200 C   0  0  0  0  0  0  0  0  0  0  0  0
   -4.2250    1.3980   -0.6160 C   0  0  0  0  0  0  0  0  0  0  0  0
    1.8530   -0.3400   -0.4100 C   0  0  0  0  0  0  0  0  0  0  0  0
    3.1550    0.2690    0.0430 C   0  0  0  0  0  0  0  0  0  0  0  0
    3.1570    1.3360    0.6090 O   0  0  0  0  0  0  0  0  0  0  0  0
    5.6300    1.2410   -0.2060 H   0  0  0  0  0  0  0  0  0  0  0  0
    5.4740    0.4110    1.3610 H   0  0  0  0  0  0  0  0  0  0  0  0
    6.6280   -1.5740    0.4240 H   0  0  0  0  0  0  0  0  0  0  0  0
    6.7840   -0.7430   -1.1430 H   0  0  0  0  0  0  0  0  0  0  0  0
    7.6440   -0.1190    0.2850 H   0  0  0  0  0  0  0  0  0  0  0  0
   -0.1610   -1.9640    0.0420 H   0  0  0  0  0  0  0  0  0  0  0  0
   -0.9210   -1.0990    1.2420 H   0  0  0  0  0  0  0  0  0  0  0  0
   -0.5730   -0.2480   -1.5590 H   0  0  0  0  0  0  0  0  0  0  0  0
   -1.8770    1.1020    0.8460 H   0  0  0  0  0  0  0  0  0  0  0  0
   -1.5440    1.9060   -0.7070 H   0  0  0  0  0  0  0  0  0  0  0  0
   -2.9450    0.1380   -1.8540 H   0  0  0  0  0  0  0  0  0  0  0  0
    0.8340    1.5540   -0.5180 H   0  0  0  0  0  0  0  0  0  0  0  0
    0.6780    0.7240    1.0480 H   0  0  0  0  0  0  0  0  0  0  0  0
   -4.9470   -1.1290    1.4190 H   0  0  0  0  0  0  0  0  0  0  0  0
   -5.9290    1.0490    0.6990 H   0  0  0  0  0  0  0  0  0  0  0  0
   -4.4160    1.4720    1.5550 H   0  0  0  0  0  0  0  0  0  0  0  0
   -3.8440    2.4150   -0.5270 H   0  0  0  0  0  0  0  0  0  0  0  0
   -4.9450    1.3220   -1.4300 H   0  0  0  0  0  0  0  0  0  0  0  0
    1.7150   -1.3070    0.0750 H   0  0  0  0  0  0  0  0  0  0  0  0
    1.8720   -0.4760   -1.4910 H   0  0  0  0  0  0  0  0  0  0  0  0
  1  2  1  0  0  0  0
  1 15  1  0  0  0  0
  2  3  1  0  0  0  0
  2 17  1  0  0  0  0
  2 18  1  0  0  0  0
  3 19  1  0  0  0  0
  3 20  1  0  0  0  0
  3 21  1  0  0  0  0
  4  5  1  0  0  0  0
  4 22  1  0  0  0  0
  4 23  1  0  0  0  0
  5  6  1  0  0  0  0
  5  8  1  0  0  0  0
  5 24  1  0  0  0  0
  6  7  1  0  0  0  0
  6 25  1  0  0  0  0
  6 26  1  0  0  0  0
  7 13  1  0  0  0  0
  7  9  1  0  0  0  0
  7 27  1  0  0  0  0
  8 14  1  0  0  0  0
  8 28  1  0  0  0  0
  8 29  1  0  0  0  0
  9 11  1  0  0  0  0
  9 10  2  0  0  0  0
 11 12  1  0  0  0  0
 11 30  1  0  0  0  0
 12 13  1  0  0  0  0
 12 31  1  0  0  0  0
 12 32  1  0  0  0  0
 13 33  1  0  0  0  0
 13 34  1  0  0  0  0
 14 15  1  0  0  0  0
 14 35  1  0  0  0  0
 14 36  1  0  0  0  0
 15 16  2  0  0  0  0
M  END
> <OPENEYE_ISO_SMILES>
CCOC(=O)CC[C@H](C[C@@H]1CCNC1=O)N

> <OPENEYE_INCHI>
InChI=1S/C11H20N2O3/c1-2-16-10(14)4-3-9(12)7-8-5-6-13-11(8)15/h8-9H,2-7,12H2,1H3,(H,13,15)/t8-,9+/m0/s1

> <OPENEYE_INCHIKEY>
BLWBKGMLORNBPP-DTWKUNHWSA-N

> <FORMULA>
C11H20N2O3

$$$$
