T7P
  -OEChem-02242320043D

 30 31  0     1  0  0  0  0  0999 V2000
    0.8180   -0.3540    0.3060 C   0  0  2  0  0  0  0  0  0  0  0  0
    2.9200    0.0960    1.4070 C   0  0  0  0  0  0  0  0  0  0  0  0
    0.0090    1.8590   -0.3180 C   0  0  0  0  0  0  0  0  0  0  0  0
   -1.1130    2.8390   -0.5440 C   0  0  0  0  0  0  0  0  0  0  0  0
   -1.5970    0.1300   -0.0030 C   0  0  0  0  0  0  0  0  0  0  0  0
   -2.0230   -0.8080   -0.9340 C   0  0  0  0  0  0  0  0  0  0  0  0
   -3.3310   -1.2500   -0.9180 C   0  0  0  0  0  0  0  0  0  0  0  0
   -4.2180   -0.7580    0.0260 C   0  0  0  0  0  0  0  0  0  0  0  0
   -3.7950    0.1770    0.9550 C   0  0  0  0  0  0  0  0  0  0  0  0
   -2.4870    0.6210    0.9420 C   0  0  0  0  0  0  0  0  0  0  0  0
    1.6210    0.1930    1.4430 C   0  0  0  0  0  0  0  0  0  0  0  0
    1.7240   -0.5340   -0.9380 C   0  0  0  0  0  0  0  0  0  0  0  0
   -5.4970   -1.1920    0.0390 F   0  0  0  0  0  0  0  0  0  0  0  0
   -0.2690    0.5750   -0.0140 N   0  0  0  0  0  0  0  0  0  0  0  0
    1.1620    2.2240   -0.4100 O   0  0  0  0  0  0  0  0  0  0  0  0
    3.6170   -2.0680    0.2370 O   0  0  0  0  0  0  0  0  0  0  0  0
    4.3430    0.1090   -0.7170 O   0  0  0  0  0  0  0  0  0  0  0  0
    3.3560   -0.7160   -0.1130 S   0  0  0  0  0  0  0  0  0  0  0  0
    0.3970   -1.3180    0.5900 H   0  0  0  0  0  0  0  0  0  0  0  0
    3.6070    0.4450    2.1640 H   0  0  0  0  0  0  0  0  0  0  0  0
   -1.3220    3.3720    0.3840 H   0  0  0  0  0  0  0  0  0  0  0  0
   -0.8220    3.5530   -1.3150 H   0  0  0  0  0  0  0  0  0  0  0  0
   -2.0060    2.3020   -0.8650 H   0  0  0  0  0  0  0  0  0  0  0  0
   -1.3320   -1.1910   -1.6700 H   0  0  0  0  0  0  0  0  0  0  0  0
   -3.6630   -1.9800   -1.6420 H   0  0  0  0  0  0  0  0  0  0  0  0
   -4.4880    0.5600    1.6890 H   0  0  0  0  0  0  0  0  0  0  0  0
   -2.1570    1.3510    1.6670 H   0  0  0  0  0  0  0  0  0  0  0  0
    1.1310    0.6630    2.2830 H   0  0  0  0  0  0  0  0  0  0  0  0
    1.4590   -1.4320   -1.4950 H   0  0  0  0  0  0  0  0  0  0  0  0
    1.6980    0.3480   -1.5780 H   0  0  0  0  0  0  0  0  0  0  0  0
  3 15  2  0  0  0  0
  3  4  1  0  0  0  0
  3 14  1  0  0  0  0
  5  6  2  0  0  0  0
  6  7  1  0  0  0  0
  7  8  2  0  0  0  0
  8 13  1  0  0  0  0
  8  9  1  0  0  0  0
  9 10  2  0  0  0  0
  5 14  1  0  0  0  0
  1 14  1  0  0  0  0
  1 11  1  0  0  0  0
  2 11  2  0  0  0  0
  2 18  1  0  0  0  0
 16 18  2  0  0  0  0
 17 18  2  0  0  0  0
 12 18  1  0  0  0  0
  5 10  1  0  0  0  0
  1 12  1  0  0  0  0
  1 19  1  0  0  0  0
  2 20  1  0  0  0  0
  4 21  1  0  0  0  0
  4 22  1  0  0  0  0
  4 23  1  0  0  0  0
  6 24  1  0  0  0  0
  7 25  1  0  0  0  0
  9 26  1  0  0  0  0
 10 27  1  0  0  0  0
 11 28  1  0  0  0  0
 12 29  1  0  0  0  0
 12 30  1  0  0  0  0
M  END
> <OPENEYE_ISO_SMILES>
CC(=O)N(c1ccc(cc1)F)[C@H]2CS(=O)(=O)C=C2

> <OPENEYE_INCHI>
InChI=1S/C12H12FNO3S/c1-9(15)14(11-4-2-10(13)3-5-11)12-6-7-18(16,17)8-12/h2-7,12H,8H2,1H3/t12-/m1/s1

> <OPENEYE_INCHIKEY>
ZNQRDHIQBZKZBG-GFCCVEGCSA-N

> <FORMULA>
C12H12FNO3S

$$$$
