5GP
  -OEChem-02242320013D

 38 40  0     1  0  0  0  0  0999 V2000
    5.0760   -0.8080   -0.2770 P   0  0  0  0  0  0  0  0  0  0  0  0
    5.9160    0.3370    0.1390 O   0  0  0  0  0  0  0  0  0  0  0  0
    4.8430   -1.7870    0.9800 O   0  0  0  0  0  0  0  0  0  0  0  0
    5.8150   -1.6150   -1.4570 O   0  0  0  0  0  0  0  0  0  0  0  0
    3.6550   -0.2660   -0.8060 O   0  0  0  0  0  0  0  0  0  0  0  0
    3.1040    0.5370    0.2400 C   0  0  0  0  0  0  0  0  0  0  0  0
    1.7450    1.0860   -0.2000 C   0  0  1  0  0  0  0  0  0  0  0  0
    0.7920    0.0110   -0.3450 O   0  0  0  0  0  0  0  0  0  0  0  0
    1.1490    1.9970    0.8960 C   0  0  1  0  0  0  0  0  0  0  0  0
    1.3990    3.3710    0.5960 O   0  0  0  0  0  0  0  0  0  0  0  0
   -0.3680    1.6980    0.8500 C   0  0  1  0  0  0  0  0  0  0  0  0
   -1.1010    2.8800    0.5220 O   0  0  0  0  0  0  0  0  0  0  0  0
   -0.5060    0.6400   -0.2670 C   0  0  2  0  0  0  0  0  0  0  0  0
   -1.5300   -0.3460    0.0880 N   0  0  0  0  0  0  0  0  0  0  0  0
   -1.3190   -1.5380    0.7170 C   0  0  0  0  0  0  0  0  0  0  0  0
   -2.4510   -2.1600    0.8750 N   0  0  0  0  0  0  0  0  0  0  0  0
   -3.4520   -1.4070    0.3580 C   0  0  0  0  0  0  0  0  0  0  0  0
   -4.8530   -1.5720    0.2490 C   0  0  0  0  0  0  0  0  0  0  0  0
   -5.3990   -2.5740    0.6770 O   0  0  0  0  0  0  0  0  0  0  0  0
   -5.5710   -0.5890   -0.3380 N   0  0  0  0  0  0  0  0  0  0  0  0
   -4.9490    0.5240   -0.8190 C   0  0  0  0  0  0  0  0  0  0  0  0
   -5.7030    1.5030   -1.4150 N   0  0  0  0  0  0  0  0  0  0  0  0
   -3.6480    0.6890   -0.7230 N   0  0  0  0  0  0  0  0  0  0  0  0
   -2.8740   -0.2390   -0.1500 C   0  0  0  0  0  0  0  0  0  0  0  0
    4.2920   -2.5170    0.6660 H   0  0  0  0  0  0  0  0  0  0  0  0
    6.6600   -1.9220   -1.1000 H   0  0  0  0  0  0  0  0  0  0  0  0
    3.7780    1.3660    0.4550 H   0  0  0  0  0  0  0  0  0  0  0  0
    2.9770   -0.0710    1.1360 H   0  0  0  0  0  0  0  0  0  0  0  0
    1.8440    1.6340   -1.1370 H   0  0  0  0  0  0  0  0  0  0  0  0
    1.5610    1.7390    1.8720 H   0  0  0  0  0  0  0  0  0  0  0  0
    1.0070    3.8900    1.3110 H   0  0  0  0  0  0  0  0  0  0  0  0
   -0.7060    1.2920    1.8030 H   0  0  0  0  0  0  0  0  0  0  0  0
   -0.9260    3.5220    1.2240 H   0  0  0  0  0  0  0  0  0  0  0  0
   -0.7540    1.1180   -1.2150 H   0  0  0  0  0  0  0  0  0  0  0  0
   -0.3560   -1.9100    1.0370 H   0  0  0  0  0  0  0  0  0  0  0  0
   -6.5330   -0.6800   -0.4250 H   0  0  0  0  0  0  0  0  0  0  0  0
   -5.2750    2.3030   -1.7590 H   0  0  0  0  0  0  0  0  0  0  0  0
   -6.6630    1.3940   -1.4970 H   0  0  0  0  0  0  0  0  0  0  0  0
  1  2  2  0  0  0  0
  1  3  1  0  0  0  0
  1  4  1  0  0  0  0
  1  5  1  0  0  0  0
  3 25  1  0  0  0  0
  4 26  1  0  0  0  0
  5  6  1  0  0  0  0
  6  7  1  0  0  0  0
  6 27  1  0  0  0  0
  6 28  1  0  0  0  0
  7  8  1  0  0  0  0
  7  9  1  0  0  0  0
  7 29  1  0  0  0  0
  8 13  1  0  0  0  0
  9 10  1  0  0  0  0
  9 11  1  0  0  0  0
  9 30  1  0  0  0  0
 10 31  1  0  0  0  0
 11 12  1  0  0  0  0
 11 13  1  0  0  0  0
 11 32  1  0  0  0  0
 12 33  1  0  0  0  0
 13 14  1  0  0  0  0
 13 34  1  0  0  0  0
 14 15  1  0  0  0  0
 14 24  1  0  0  0  0
 15 16  2  0  0  0  0
 15 35  1  0  0  0  0
 16 17  1  0  0  0  0
 17 18  1  0  0  0  0
 17 24  2  0  0  0  0
 18 19  2  0  0  0  0
 18 20  1  0  0  0  0
 20 21  1  0  0  0  0
 20 36  1  0  0  0  0
 21 22  1  0  0  0  0
 21 23  2  0  0  0  0
 22 37  1  0  0  0  0
 22 38  1  0  0  0  0
 23 24  1  0  0  0  0
M  END
> <OPENEYE_ISO_SMILES>
c1nc2c(=O)[nH]c(nc2n1[C@H]3[C@@H]([C@@H]([C@H](O3)COP(=O)(O)O)O)O)N

> <OPENEYE_INCHI>
InChI=1S/C10H14N5O8P/c11-10-13-7-4(8(18)14-10)12-2-15(7)9-6(17)5(16)3(23-9)1-22-24(19,20)21/h2-3,5-6,9,16-17H,1H2,(H2,19,20,21)(H3,11,13,14,18)/t3-,5-,6-,9-/m1/s1

> <OPENEYE_INCHIKEY>
RQFCJASXJCIDSX-UUOKFMHZSA-N

> <FORMULA>
C10H14N5O8P

$$$$
