@<TRIPOS>MOLECULE
/home/pku/3cl/gett_pdb/7TWX/7TWX_mol2/ligand/7TWX_AR6.pdb
 57 60 0 0 0
SMALL
GASTEIGER

@<TRIPOS>ATOM
      1  N1        15.0370    1.6040    6.1650 N.2   201  AR6201     -0.2420
      2  C2        14.7560    0.4220    5.5950 C.2   201  AR6201      0.1049
      3  N3        14.5950    0.1820    4.2950 N.pl3 201  AR6201     -0.1840
      4  C4        14.7670    1.2720    3.5390 C.ar  201  AR6201      0.1528
      5  C5        15.0910    2.5450    4.0080 C.ar  201  AR6201      0.1287
      6  C6        15.2210    2.6750    5.3990 C.3   201  AR6201      0.2004
      7  N6        15.5450    3.8820    5.9950 N.3   201  AR6201     -0.2985
      8  N7        15.2150    3.4060    2.9370 N.ar  201  AR6201     -0.2346
      9  C8        14.9790    2.6600    1.8690 C.ar  201  AR6201      0.0999
     10  N9        14.6930    1.3710    2.1950 N.ar  201  AR6201     -0.2877
     11  PA        18.0130    1.5040   -1.6230 P.3   201  AR6201      0.2182
     12  PB        19.5570   -0.1490   -3.5330 P.3   201  AR6201      0.2182
     13  C1'       14.3960    0.2420    1.3170 C.3   201  AR6201      0.1665
     14  O1A       17.5790    2.4510   -2.6930 O.co2 201  AR6201     -0.5170
     15  O1B       18.3370   -0.3900   -4.3530 O.2   201  AR6201     -0.5170
     16  C1D       21.5240    4.5760   -2.2580 C.3   201  AR6201      0.1854
     17  O1D       21.2630    5.6880   -2.9360 O.3   201  AR6201     -0.3649
     18  C2'       13.9110    0.5230   -0.0030 C.3   201  AR6201      0.1285
     19  O2'       12.4940    0.7440    0.0770 O.3   201  AR6201     -0.3847
     20  O2A       18.4790    2.0640   -0.3290 O.3   201  AR6201     -0.4371
     21  O2B       20.4620   -1.2860   -3.2100 O.co2 201  AR6201     -0.4371
     22  C2D       23.0150    4.1020   -2.3140 C.3   201  AR6201      0.1339
     23  O2D       23.9060    5.2160   -2.0150 O.3   201  AR6201     -0.3841
     24  C3'       14.3110   -0.7330   -0.8100 C.3   201  AR6201      0.1135
     25  O3'       13.3790   -1.7750   -0.6880 O.3   201  AR6201     -0.3864
     26  O3A       19.1620    0.4900   -2.1020 O.3   201  AR6201     -0.2703
     27  C3D       23.1840    3.4390   -3.5060 C.3   201  AR6201      0.1141
     28  O3D       23.6750    4.2780   -4.5930 O.3   201  AR6201     -0.3864
     29  C4'       15.6250   -1.1320   -0.0920 C.3   201  AR6201      0.1133
     30  O4'       15.6590   -0.4940    1.1450 O.3   201  AR6201     -0.3456
     31  C4D       21.7380    2.9000   -3.8390 C.3   201  AR6201      0.1138
     32  O4D       20.8920    3.4220   -2.8870 O.3   201  AR6201     -0.3407
     33  C5'       16.8940   -0.7710   -0.8620 C.3   201  AR6201      0.0836
     34  O5'       16.7560    0.5410   -1.3930 O.3   201  AR6201     -0.3246
     35  C5D       21.6470    1.4060   -3.7530 C.3   201  AR6201      0.0837
     36  O5D       20.3510    1.0270   -4.2420 O.3   201  AR6201     -0.3246
     37  H2        14.6230   -0.2960    6.1690 H     201  AR6201      0.1015
     38  HN6       14.9200    4.4140    6.2510 H     201  AR6201      0.1209
     39 HN6A       16.3690    4.0970    6.1080 H     201  AR6201      0.1209
     40  H8        14.9790    2.9860    1.0000 H     201  AR6201      0.1030
     41  H1'       13.7820   -0.3220    1.7480 H     201  AR6201      0.0866
     42  H1D       21.2420    4.6550   -1.3670 H     201  AR6201      0.0935
     43  H2'       14.3410    1.2810   -0.3530 H     201  AR6201      0.0665
     44 HO2'       12.2600    1.2660   -0.5270 H     201  AR6201      0.2101
     45  H2D       23.1300    3.4680   -1.6300 H     201  AR6201      0.0671
     46 HO2D       24.3380    5.0480   -1.3020 H     201  AR6201      0.2101
     47  H3'       14.4700   -0.5180   -1.7100 H     201  AR6201      0.0647
     48 HO3'       13.2500   -2.1210   -1.4330 H     201  AR6201      0.2100
     49  H3D       23.7650    2.7110   -3.3820 H     201  AR6201      0.0648
     50 HO3D       23.5900    3.8650   -5.3310 H     201  AR6201      0.2100
     51  H4'       15.6120   -2.0600    0.0510 H     201  AR6201      0.0647
     52  H4D       21.4800    3.1940   -4.6920 H     201  AR6201      0.0647
     53  H5'       17.0210   -1.3830   -1.5630 H     201  AR6201      0.0591
     54 H5'A       17.6320   -0.8000   -0.2820 H     201  AR6201      0.0591
     55  H5D       22.3380    1.0020   -4.2990 H     201  AR6201      0.0591
     56 H5DA       21.7470    1.1230   -2.8320 H     201  AR6201      0.0591
     57  HD1       20.6600    6.1320   -2.5350 H     201  AR6201      0.2126
@<TRIPOS>UNITY_ATOM_ATTR
14 1
charge -1
21 1
charge -1
@<TRIPOS>BOND
     1    50    28    1
     2    52    31    1
     3    28    27    1
     4    15    12    2
     5    55    35    1
     6    36    35    1
     7    36    12    1
     8    31    35    1
     9    31    27    1
    10    31    32    1
    11    35    56    1
    12    12    21    1
    13    12    26    1
    14    27    49    1
    15    27    22    1
    16    17    57    1
    17    17    16    1
    18    32    16    1
    19    14    11    2
    20    22    16    1
    21    22    23    1
    22    22    45    1
    23    16    42    1
    24    26    11    1
    25    23    46    1
    26    47    24    1
    27    11    34    1
    28    11    20    1
    29    53    33    1
    30    48    25    1
    31    34    33    1
    32    33    54    1
    33    33    29    1
    34    24    25    1
    35    24    29    1
    36    24    18    1
    37    44    19    1
    38    43    18    1
    39    29    51    1
    40    29    30    1
    41    18    19    1
    42    18    13    1
    43    40     9    1
    44    30    13    1
    45    13    41    1
    46    13    10    1
    47     9    10   ar
    48     9     8   ar
    49    10     4   ar
    50     8     5   ar
    51     4     5   ar
    52     4     3    1
    53     5     6    1
    54     3     2    1
    55     6     7    1
    56     6     1    1
    57     2     1    2
    58     2    37    1
    59     7    39    1
    60     7    38    1
