ISG
  -OEChem-02242320023D

 65 67  0     1  0  0  0  0  0999 V2000
   -4.4330   -0.1900    1.3930 C   0  0  1  0  0  0  0  0  0  0  0  0
   -5.5720    0.4560    0.6030 C   0  0  0  0  0  0  0  0  0  0  0  0
   -5.1390    4.0700    0.0350 C   0  0  0  0  0  0  0  0  0  0  0  0
    1.2660   -0.5210   -0.3750 C   0  0  0  0  0  0  0  0  0  0  0  0
   -1.0530   -1.2100   -0.0830 C   0  0  1  0  0  0  0  0  0  0  0  0
   -1.0790   -2.7220   -0.3170 C   0  0  0  0  0  0  0  0  0  0  0  0
   -2.4270   -3.1210   -0.9210 C   0  0  0  0  0  0  0  0  0  0  0  0
   -2.5560   -2.5190   -2.3210 C   0  0  0  0  0  0  0  0  0  0  0  0
   -2.5120   -4.6460   -1.0120 C   0  0  0  0  0  0  0  0  0  0  0  0
   -2.1360   -0.8340    0.8950 C   0  0  0  0  0  0  0  0  0  0  0  0
   -5.0430    1.6810   -0.1470 C   0  0  1  0  0  0  0  0  0  0  0  0
   -6.1170    2.2600   -1.0410 C   0  0  0  0  0  0  0  0  0  0  0  0
   -4.7180    2.8230    0.8440 C   0  0  0  0  0  0  0  0  0  0  0  0
   -4.9690   -1.3540    2.1870 C   0  0  0  0  0  0  0  0  0  0  0  0
    3.4810    0.2380   -0.8370 C   0  0  0  0  0  0  0  0  0  0  0  0
    4.7210    0.7390   -0.0930 C   0  0  1  0  0  0  0  0  0  0  0  0
    5.9810    1.0040   -0.9190 C   0  0  1  0  0  0  0  0  0  0  0  0
    5.1710    2.1770   -0.3590 C   0  0  0  0  0  0  0  0  0  0  0  0
    7.3100    0.7060   -0.2760 C   0  0  0  0  0  0  0  0  0  0  0  0
    8.1630   -0.2200   -0.8470 C   0  0  0  0  0  0  0  0  0  0  0  0
    9.3820   -0.4940   -0.2570 C   0  0  0  0  0  0  0  0  0  0  0  0
    9.7490    0.1580    0.9050 C   0  0  0  0  0  0  0  0  0  0  0  0
    8.8970    1.0840    1.4770 C   0  0  0  0  0  0  0  0  0  0  0  0
    7.6800    1.3620    0.8830 C   0  0  0  0  0  0  0  0  0  0  0  0
    0.2510   -0.8220    0.4600 N   0  0  0  0  0  0  0  0  0  0  0  0
   -3.4020   -0.6640    0.4660 N   0  0  0  0  0  0  0  0  0  0  0  0
   -6.1530    3.5970   -0.9150 N   0  0  0  0  0  0  0  0  0  0  0  0
    1.1280   -0.6610   -1.5740 O   0  0  0  0  0  0  0  0  0  0  0  0
   -6.8410    1.6110   -1.7660 O   0  0  0  0  0  0  0  0  0  0  0  0
   -4.5350   -2.4640    1.9970 O   0  0  0  0  0  0  0  0  0  0  0  0
   -1.8690   -0.6850    2.0690 O   0  0  0  0  0  0  0  0  0  0  0  0
    2.4320   -0.0650    0.1210 O   0  0  0  0  0  0  0  0  0  0  0  0
   -4.0000    0.5450    2.0730 H   0  0  0  0  0  0  0  0  0  0  0  0
   -5.9720   -0.2630   -0.1120 H   0  0  0  0  0  0  0  0  0  0  0  0
   -6.3620    0.7630    1.2890 H   0  0  0  0  0  0  0  0  0  0  0  0
   -5.5650    4.8230    0.6980 H   0  0  0  0  0  0  0  0  0  0  0  0
   -4.2830    4.4810   -0.5000 H   0  0  0  0  0  0  0  0  0  0  0  0
   -1.2220   -0.6930   -1.0280 H   0  0  0  0  0  0  0  0  0  0  0  0
   -0.2770   -2.9970   -1.0020 H   0  0  0  0  0  0  0  0  0  0  0  0
   -0.9390   -3.2380    0.6330 H   0  0  0  0  0  0  0  0  0  0  0  0
   -3.2330   -2.7490   -0.2890 H   0  0  0  0  0  0  0  0  0  0  0  0
   -1.7880   -2.9390   -2.9700 H   0  0  0  0  0  0  0  0  0  0  0  0
   -3.5410   -2.7500   -2.7260 H   0  0  0  0  0  0  0  0  0  0  0  0
   -2.4320   -1.4370   -2.2640 H   0  0  0  0  0  0  0  0  0  0  0  0
   -2.4200   -5.0760   -0.0140 H   0  0  0  0  0  0  0  0  0  0  0  0
   -3.4720   -4.9310   -1.4420 H   0  0  0  0  0  0  0  0  0  0  0  0
   -1.7060   -5.0180   -1.6440 H   0  0  0  0  0  0  0  0  0  0  0  0
   -4.1610    1.4180   -0.7310 H   0  0  0  0  0  0  0  0  0  0  0  0
   -3.6530    2.8480    1.0740 H   0  0  0  0  0  0  0  0  0  0  0  0
   -5.3110    2.7300    1.7540 H   0  0  0  0  0  0  0  0  0  0  0  0
   -5.7410   -1.1940    2.9250 H   0  0  0  0  0  0  0  0  0  0  0  0
    3.1330    1.0090   -1.5240 H   0  0  0  0  0  0  0  0  0  0  0  0
    3.7320   -0.6620   -1.3980 H   0  0  0  0  0  0  0  0  0  0  0  0
    4.8530    0.3480    0.9160 H   0  0  0  0  0  0  0  0  0  0  0  0
    5.9260    0.8220   -1.9920 H   0  0  0  0  0  0  0  0  0  0  0  0
    4.5850    2.7660   -1.0640 H   0  0  0  0  0  0  0  0  0  0  0  0
    5.6010    2.7320    0.4750 H   0  0  0  0  0  0  0  0  0  0  0  0
    7.8760   -0.7300   -1.7550 H   0  0  0  0  0  0  0  0  0  0  0  0
   10.0480   -1.2180   -0.7030 H   0  0  0  0  0  0  0  0  0  0  0  0
   10.7020   -0.0570    1.3670 H   0  0  0  0  0  0  0  0  0  0  0  0
    9.1860    1.5960    2.3830 H   0  0  0  0  0  0  0  0  0  0  0  0
    7.0140    2.0860    1.3300 H   0  0  0  0  0  0  0  0  0  0  0  0
    0.3840   -0.7810    1.4200 H   0  0  0  0  0  0  0  0  0  0  0  0
   -3.6320   -0.8550   -0.4570 H   0  0  0  0  0  0  0  0  0  0  0  0
   -6.7690    4.1760   -1.3910 H   0  0  0  0  0  0  0  0  0  0  0  0
  7  8  1  0  0  0  0
  7  9  1  0  0  0  0
  6  7  1  0  0  0  0
 23 24  2  0  0  0  0
 22 23  1  0  0  0  0
 19 24  1  0  0  0  0
  5  6  1  0  0  0  0
 17 18  1  0  0  0  0
 16 18  1  0  0  0  0
 21 22  2  0  0  0  0
  5 25  1  0  0  0  0
  4 25  1  0  0  0  0
  5 10  1  0  0  0  0
 17 19  1  0  0  0  0
 19 20  2  0  0  0  0
 16 17  1  0  0  0  0
  4 32  1  0  0  0  0
  4 28  2  0  0  0  0
 15 32  1  0  0  0  0
 20 21  1  0  0  0  0
 15 16  1  0  0  0  0
 10 26  1  0  0  0  0
 10 31  2  0  0  0  0
  1 26  1  0  0  0  0
 14 30  2  0  0  0  0
  1 14  1  0  0  0  0
  1  2  1  0  0  0  0
  2 11  1  0  0  0  0
 11 12  1  0  0  0  0
 11 13  1  0  0  0  0
 12 29  2  0  0  0  0
 12 27  1  0  0  0  0
  3 13  1  0  0  0  0
  3 27  1  0  0  0  0
  1 33  1  0  0  0  0
  2 34  1  0  0  0  0
  2 35  1  0  0  0  0
  3 36  1  0  0  0  0
  3 37  1  0  0  0  0
  5 38  1  0  0  0  0
  6 39  1  0  0  0  0
  6 40  1  0  0  0  0
  7 41  1  0  0  0  0
  8 42  1  0  0  0  0
  8 43  1  0  0  0  0
  8 44  1  0  0  0  0
  9 45  1  0  0  0  0
  9 46  1  0  0  0  0
  9 47  1  0  0  0  0
 11 48  1  0  0  0  0
 13 49  1  0  0  0  0
 13 50  1  0  0  0  0
 14 51  1  0  0  0  0
 15 52  1  0  0  0  0
 15 53  1  0  0  0  0
 16 54  1  0  0  0  0
 17 55  1  0  0  0  0
 18 56  1  0  0  0  0
 18 57  1  0  0  0  0
 20 58  1  0  0  0  0
 21 59  1  0  0  0  0
 22 60  1  0  0  0  0
 23 61  1  0  0  0  0
 24 62  1  0  0  0  0
 25 63  1  0  0  0  0
 26 64  1  0  0  0  0
 27 65  1  0  0  0  0
M  END
> <OPENEYE_ISO_SMILES>
CC(C)C[C@@H](C(=O)N[C@@H](C[C@@H]1CCNC1=O)C=O)NC(=O)OC[C@@H]2C[C@H]2c3ccccc3

> <OPENEYE_INCHI>
InChI=1S/C24H33N3O5/c1-15(2)10-21(23(30)26-19(13-28)11-17-8-9-25-22(17)29)27-24(31)32-14-18-12-20(18)16-6-4-3-5-7-16/h3-7,13,15,17-21H,8-12,14H2,1-2H3,(H,25,29)(H,26,30)(H,27,31)/t17-,18-,19-,20-,21-/m0/s1

> <OPENEYE_INCHIKEY>
HUKBDAJESLCQRJ-SXYSDOLCSA-N

> <FORMULA>
C24H33N3O5

$$$$
