@<TRIPOS>MOLECULE
/home/pku/3cl/gett_pdb/7TIV/7TIV_mol2/ligand/7TIV_W48.pdb
 33 35 0 0 0
SMALL
GASTEIGER

@<TRIPOS>ATOM
      1  C2         8.7420    1.1210   21.9210 C.2   401  W48401      0.2617
      2  C4         8.6580    2.1870   19.7350 C.3   401  W48401      0.1604
      3  C5         8.1020    1.3990   18.5420 C.3   401  W48401      0.0433
      4  C10        7.8240   -0.9310   17.6110 C.2   401  W48401      0.2493
      5  C6         8.4520   -0.1190   18.6910 C.3   401  W48401      0.1039
      6  C7         9.9410   -0.2820   18.6180 C.2   401  W48401      0.0007
      7  C12        8.3430    3.6740   19.5650 C.2   401  W48401      0.2287
      8  N3         8.0350    1.7250   20.9650 N.am  401  W48401     -0.1977
      9  C14        8.0380    0.6510   23.2020 C.3   401  W48401      0.1761
     10  C15        8.2420    1.7330   24.2680 C.3   401  W48401      0.0312
     11  C8        10.1550   -1.4200   17.5610 C.2   401  W48401      0.0845
     12  O1         9.9250    0.9490   21.7790 O.2   401  W48401     -0.2715
     13  C19        5.5890    2.0070   27.7300 C.3   401  W48401      0.0000
     14  C16        7.5760    1.3890   25.6120 C.3   401  W48401      0.0022
     15  C20        5.3970    0.8380   26.7640 C.3   401  W48401      0.0000
     16  C17        7.7860    2.5660   26.5720 C.3   401  W48401      0.0001
     17  C18        7.0610    2.3830   27.9160 C.3   401  W48401      0.0000
     18  C21        6.0780    1.1230   25.4250 C.3   401  W48401      0.0001
     19  C23        8.5610   -1.7520   22.9680 C.2   401  W48401      0.4218
     20  C25        9.1690   -3.9920   22.7430 C.3   401  W48401      0.2368
     21  C26       10.2300   -3.9900   21.6400 C.ar  401  W48401      0.0222
     22  C27       10.3120   -5.0630   20.7500 C.ar  401  W48401     -0.0006
     23  C28       11.2730   -5.0590   19.7380 C.ar  401  W48401      0.0007
     24  C29       12.1510   -3.9860   19.6130 C.ar  401  W48401      0.0114
     25  C30       12.0660   -2.9160   20.5080 C.ar  401  W48401      0.0575
     26  C31       11.1150   -2.9210   21.5130 C.ar  401  W48401      0.0107
     27 CL         13.1180   -1.5880   20.3820 Cl    401  W48401     -0.0823
     28  N22        8.6140   -0.6040   23.6530 N.am  401  W48401     -0.1611
     29  N9         8.7540   -1.6620   16.9840 N.am  401  W48401     -0.1780
     30  O11        6.6490   -0.9430   17.3520 O.2   401  W48401     -0.2726
     31  O13        8.8360    4.3160   18.6720 O.2   401  W48401     -0.2864
     32  O24        9.1960   -2.7960   23.4820 O.3   401  W48401     -0.4285
     33  O32        7.9890   -1.8420   21.9240 O.2   401  W48401     -0.2245
@<TRIPOS>BOND
     1    29    11    1
     2    29     4   am
     3    30     4    2
     4    11     6    2
     5     4     5    1
     6     3     5    1
     7     3     2    1
     8     6     5    1
     9    31     7    2
    10     7     2    1
    11    24    23   ar
    12    24    25   ar
    13     2     8    1
    14    23    22   ar
    15    27    25    1
    16    25    26   ar
    17    22    21   ar
    18     8     1   am
    19    26    21   ar
    20    21    20    1
    21    12     1    2
    22     1     9    1
    23    33    19    2
    24    20    32    1
    25    19    32    1
    26    19    28   am
    27     9    28    1
    28     9    10    1
    29    10    14    1
    30    18    14    1
    31    18    15    1
    32    14    16    1
    33    16    17    1
    34    15    13    1
    35    13    17    1
