T3J
  -OEChem-02242320043D

 30 31  0     1  0  0  0  0  0999 V2000
    1.2210   -0.1190    0.3000 C   0  0  0  0  0  0  0  0  0  0  0  0
    3.9220    0.2930   -0.1320 C   0  0  0  0  0  0  0  0  0  0  0  0
    3.2190   -0.5900   -0.9340 C   0  0  0  0  0  0  0  0  0  0  0  0
   -1.0650    0.4740   -0.4660 C   0  0  0  0  0  0  0  0  0  0  0  0
   -3.4410    1.0260   -0.1920 C   0  0  0  0  0  0  0  0  0  0  0  0
   -4.8690    0.6080    0.0440 C   0  0  0  0  0  0  0  0  0  0  0  0
   -2.8160   -1.3410   -0.3730 C   0  0  0  0  0  0  0  0  0  0  0  0
   -1.9140   -2.0740    0.6280 C   0  0  0  0  0  0  0  0  0  0  0  0
   -0.2490   -0.3480    0.5390 C   0  0  1  0  0  0  0  0  0  0  0  0
    1.9230    0.7630    1.1010 C   0  0  0  0  0  0  0  0  0  0  0  0
    3.2720    0.9690    0.8870 C   0  0  0  0  0  0  0  0  0  0  0  0
    1.8690   -0.7940   -0.7180 C   0  0  0  0  0  0  0  0  0  0  0  0
    5.2410    0.4940   -0.3430 F   0  0  0  0  0  0  0  0  0  0  0  0
   -2.4800    0.0910   -0.3380 N   0  0  0  0  0  0  0  0  0  0  0  0
   -3.1550    2.2030   -0.2510 O   0  0  0  0  0  0  0  0  0  0  0  0
   -0.5500   -1.7350    0.3680 O   0  0  0  0  0  0  0  0  0  0  0  0
    3.7240   -1.1180   -1.7290 H   0  0  0  0  0  0  0  0  0  0  0  0
   -0.9510    1.5360   -0.2500 H   0  0  0  0  0  0  0  0  0  0  0  0
   -0.7190    0.2650   -1.4780 H   0  0  0  0  0  0  0  0  0  0  0  0
   -4.9470   -0.4770   -0.0300 H   0  0  0  0  0  0  0  0  0  0  0  0
   -5.1820    0.9280    1.0380 H   0  0  0  0  0  0  0  0  0  0  0  0
   -5.5110    1.0700   -0.7060 H   0  0  0  0  0  0  0  0  0  0  0  0
   -2.6460   -1.7330   -1.3760 H   0  0  0  0  0  0  0  0  0  0  0  0
   -3.8610   -1.4800   -0.0970 H   0  0  0  0  0  0  0  0  0  0  0  0
   -2.1770   -1.7740    1.6420 H   0  0  0  0  0  0  0  0  0  0  0  0
   -2.0490   -3.1500    0.5190 H   0  0  0  0  0  0  0  0  0  0  0  0
   -0.5050   -0.0410    1.5530 H   0  0  0  0  0  0  0  0  0  0  0  0
    1.4150    1.2900    1.8960 H   0  0  0  0  0  0  0  0  0  0  0  0
    3.8200    1.6570    1.5130 H   0  0  0  0  0  0  0  0  0  0  0  0
    1.3200   -1.4820   -1.3440 H   0  0  0  0  0  0  0  0  0  0  0  0
  5 15  2  0  0  0  0
  5  6  1  0  0  0  0
  5 14  1  0  0  0  0
  7 14  1  0  0  0  0
  7  8  1  0  0  0  0
  8 16  1  0  0  0  0
  9 16  1  0  0  0  0
  1 10  2  0  0  0  0
 10 11  1  0  0  0  0
  2 11  2  0  0  0  0
  2 13  1  0  0  0  0
  2  3  1  0  0  0  0
  3 12  2  0  0  0  0
  1  9  1  0  0  0  0
  4  9  1  0  0  0  0
  4 14  1  0  0  0  0
  1 12  1  0  0  0  0
  3 17  1  0  0  0  0
  4 18  1  0  0  0  0
  4 19  1  0  0  0  0
  6 20  1  0  0  0  0
  6 21  1  0  0  0  0
  6 22  1  0  0  0  0
  7 23  1  0  0  0  0
  7 24  1  0  0  0  0
  8 25  1  0  0  0  0
  8 26  1  0  0  0  0
  9 27  1  0  0  0  0
 10 28  1  0  0  0  0
 11 29  1  0  0  0  0
 12 30  1  0  0  0  0
M  END
> <OPENEYE_ISO_SMILES>
CC(=O)N1CCO[C@H](C1)c2ccc(cc2)F

> <OPENEYE_INCHI>
InChI=1S/C12H14FNO2/c1-9(15)14-6-7-16-12(8-14)10-2-4-11(13)5-3-10/h2-5,12H,6-8H2,1H3/t12-/m1/s1

> <OPENEYE_INCHIKEY>
HUEBTMPZBSOCPP-GFCCVEGCSA-N

> <FORMULA>
C12H14FNO2

$$$$
