W6G
  -OEChem-02242320043D

 22 23  0     0  0  0  0  0  0999 V2000
   -1.6260   -0.0920    0.0400 C   0  0  0  0  0  0  0  0  0  0  0  0
   -3.2400    2.1120   -0.3880 C   0  0  0  0  0  0  0  0  0  0  0  0
   -2.5200   -0.0840   -1.0150 C   0  0  0  0  0  0  0  0  0  0  0  0
    1.6500   -0.2270   -0.2100 C   0  0  0  0  0  0  0  0  0  0  0  0
    3.3820    1.5030    0.1220 C   0  0  0  0  0  0  0  0  0  0  0  0
   -1.5390    1.0020    0.8800 C   0  0  0  0  0  0  0  0  0  0  0  0
   -2.3460    2.1040    0.6670 C   0  0  0  0  0  0  0  0  0  0  0  0
   -3.3270    1.0180   -1.2280 C   0  0  0  0  0  0  0  0  0  0  0  0
    0.7940   -1.2660   -0.5450 N   0  0  0  0  0  0  0  0  0  0  0  0
    1.4790    0.6290    0.7560 N   0  0  0  0  0  0  0  0  0  0  0  0
    2.3660    1.5100    0.9210 N   0  0  0  0  0  0  0  0  0  0  0  0
   -0.2370   -1.4660    1.6890 O   0  0  0  0  0  0  0  0  0  0  0  0
   -1.2650   -2.6020   -0.2860 O   0  0  0  0  0  0  0  0  0  0  0  0
   -0.6020   -1.4990    0.3160 S   0  0  0  0  0  0  0  0  0  0  0  0
    3.1710    0.1680   -1.0120 S   0  0  0  0  0  0  0  0  0  0  0  0
   -3.8710    2.9730   -0.5550 H   0  0  0  0  0  0  0  0  0  0  0  0
   -2.5870   -0.9380   -1.6720 H   0  0  0  0  0  0  0  0  0  0  0  0
    4.2130    2.1930    0.1450 H   0  0  0  0  0  0  0  0  0  0  0  0
   -0.8410    0.9960    1.7040 H   0  0  0  0  0  0  0  0  0  0  0  0
   -2.2780    2.9580    1.3240 H   0  0  0  0  0  0  0  0  0  0  0  0
   -4.0260    1.0240   -2.0520 H   0  0  0  0  0  0  0  0  0  0  0  0
    1.0130   -1.8560   -1.2830 H   0  0  0  0  0  0  0  0  0  0  0  0
 13 14  2  0  0  0  0
 12 14  2  0  0  0  0
  1 14  1  0  0  0  0
  9 14  1  0  0  0  0
  6  7  2  0  0  0  0
  1  6  1  0  0  0  0
  2  7  1  0  0  0  0
  1  3  2  0  0  0  0
  2  8  2  0  0  0  0
  3  8  1  0  0  0  0
  4  9  1  0  0  0  0
  4 15  1  0  0  0  0
  4 10  2  0  0  0  0
  5 15  1  0  0  0  0
 10 11  1  0  0  0  0
  5 11  2  0  0  0  0
  2 16  1  0  0  0  0
  3 17  1  0  0  0  0
  5 18  1  0  0  0  0
  6 19  1  0  0  0  0
  7 20  1  0  0  0  0
  8 21  1  0  0  0  0
  9 22  1  0  0  0  0
M  END
> <OPENEYE_ISO_SMILES>
c1ccc(cc1)S(=O)(=O)Nc2nncs2

> <OPENEYE_INCHI>
InChI=1S/C8H7N3O2S2/c12-15(13,7-4-2-1-3-5-7)11-8-10-9-6-14-8/h1-6H,(H,10,11)

> <OPENEYE_INCHIKEY>
CQVBWAMMROBBPU-UHFFFAOYSA-N

> <FORMULA>
C8H7N3O2S2

$$$$
