WH1
  -OEChem-02242320043D

 34 35  0     0  0  0  0  0  0999 V2000
    3.7310    1.0390    0.0070 N   0  0  0  0  0  0  0  0  0  0  0  0
    3.7700   -1.2610   -0.4670 C   0  0  0  0  0  0  0  0  0  0  0  0
    5.1180   -1.3120   -0.1470 C   0  0  0  0  0  0  0  0  0  0  0  0
    5.7460   -0.1420    0.2530 C   0  0  0  0  0  0  0  0  0  0  0  0
    5.0130    1.0270    0.3190 C   0  0  0  0  0  0  0  0  0  0  0  0
   -1.3710   -0.3650    0.4030 C   0  0  0  0  0  0  0  0  0  0  0  0
   -3.5750   -1.3890   -0.1450 C   0  0  0  0  0  0  0  0  0  0  0  0
   -4.8220    1.0800    0.0700 C   0  0  0  0  0  0  0  0  0  0  0  0
   -0.5630    0.6750    0.1160 N   0  0  0  0  0  0  0  0  0  0  0  0
   -1.1080    1.8700   -0.5310 C   0  0  0  0  0  0  0  0  0  0  0  0
   -0.9030   -1.3940    0.8500 O   0  0  0  0  0  0  0  0  0  0  0  0
    0.8620    0.6090    0.4530 C   0  0  0  0  0  0  0  0  0  0  0  0
   -4.9360   -1.2810   -0.3470 C   0  0  0  0  0  0  0  0  0  0  0  0
   -5.5580   -0.0500   -0.2400 C   0  0  0  0  0  0  0  0  0  0  0  0
   -3.4630    0.9840    0.2850 C   0  0  0  0  0  0  0  0  0  0  0  0
    1.6370    0.0130   -0.7240 C   0  0  0  0  0  0  0  0  0  0  0  0
    3.1020   -0.0540   -0.3780 C   0  0  0  0  0  0  0  0  0  0  0  0
   -2.8270   -0.2540    0.1730 C   0  0  0  0  0  0  0  0  0  0  0  0
    3.2490   -2.1520   -0.7820 H   0  0  0  0  0  0  0  0  0  0  0  0
    5.6660   -2.2410   -0.2070 H   0  0  0  0  0  0  0  0  0  0  0  0
    6.7950   -0.1450    0.5110 H   0  0  0  0  0  0  0  0  0  0  0  0
    5.4950    1.9430    0.6300 H   0  0  0  0  0  0  0  0  0  0  0  0
   -3.0900   -2.3510   -0.2290 H   0  0  0  0  0  0  0  0  0  0  0  0
   -5.3140    2.0370    0.1560 H   0  0  0  0  0  0  0  0  0  0  0  0
   -1.4120    2.5890    0.2300 H   0  0  0  0  0  0  0  0  0  0  0  0
   -0.3470    2.3170   -1.1700 H   0  0  0  0  0  0  0  0  0  0  0  0
   -1.9730    1.5940   -1.1350 H   0  0  0  0  0  0  0  0  0  0  0  0
    1.2320    1.6130    0.6610 H   0  0  0  0  0  0  0  0  0  0  0  0
    0.9990   -0.0190    1.3330 H   0  0  0  0  0  0  0  0  0  0  0  0
   -5.5160   -2.1590   -0.5890 H   0  0  0  0  0  0  0  0  0  0  0  0
   -6.6230    0.0290   -0.3990 H   0  0  0  0  0  0  0  0  0  0  0  0
   -2.8910    1.8640    0.5390 H   0  0  0  0  0  0  0  0  0  0  0  0
    1.2660   -0.9900   -0.9320 H   0  0  0  0  0  0  0  0  0  0  0  0
    1.5000    0.6410   -1.6050 H   0  0  0  0  0  0  0  0  0  0  0  0
  9 10  1  0  0  0  0
  9 12  1  0  0  0  0
 12 16  1  0  0  0  0
 16 17  1  0  0  0  0
  2 17  1  0  0  0  0
  2  3  2  0  0  0  0
  3  4  1  0  0  0  0
  4  5  2  0  0  0  0
  1  5  1  0  0  0  0
  1 17  2  0  0  0  0
  6  9  1  0  0  0  0
  6 11  2  0  0  0  0
  6 18  1  0  0  0  0
  7 18  1  0  0  0  0
  7 13  2  0  0  0  0
 13 14  1  0  0  0  0
  8 14  2  0  0  0  0
  8 15  1  0  0  0  0
 15 18  2  0  0  0  0
  2 19  1  0  0  0  0
  3 20  1  0  0  0  0
  4 21  1  0  0  0  0
  5 22  1  0  0  0  0
  7 23  1  0  0  0  0
  8 24  1  0  0  0  0
 10 25  1  0  0  0  0
 10 26  1  0  0  0  0
 10 27  1  0  0  0  0
 12 28  1  0  0  0  0
 12 29  1  0  0  0  0
 13 30  1  0  0  0  0
 14 31  1  0  0  0  0
 15 32  1  0  0  0  0
 16 33  1  0  0  0  0
 16 34  1  0  0  0  0
M  END
> <OPENEYE_ISO_SMILES>
CN(CCc1ccccn1)C(=O)c2ccccc2

> <OPENEYE_INCHI>
InChI=1S/C15H16N2O/c1-17(12-10-14-9-5-6-11-16-14)15(18)13-7-3-2-4-8-13/h2-9,11H,10,12H2,1H3

> <OPENEYE_INCHIKEY>
ODNBJUNZVHSOQB-UHFFFAOYSA-N

> <FORMULA>
C15H16N2O

$$$$
