7YZ
  -OEChem-02242320013D

 83 85  0     1  0  0  0  0  0999 V2000
    6.8220   -0.0590    0.6500 C   0  0  0  0  0  0  0  0  0  0  0  0
    0.9750    1.5940    0.6640 C   0  0  2  0  0  0  0  0  0  0  0  0
   -0.2320    0.8030    0.2330 C   0  0  0  0  0  0  0  0  0  0  0  0
   -1.3040   -1.9470    0.9030 C   0  0  0  0  0  0  0  0  0  0  0  0
   -2.5710    0.1660    0.4860 C   0  0  2  0  0  0  0  0  0  0  0  0
   -3.8440    0.9140    0.7880 C   0  0  0  0  0  0  0  0  0  0  0  0
   -1.1980   -3.1790    1.8040 C   0  0  0  0  0  0  0  0  0  0  0  0
   -6.2750    1.0660    0.8340 C   0  0  1  0  0  0  0  0  0  0  0  0
    0.0320   -3.9980    1.4060 C   0  0  0  0  0  0  0  0  0  0  0  0
   -7.4020    0.5350   -0.0550 C   0  0  0  0  0  0  0  0  0  0  0  0
    7.6010    0.4930   -0.3490 C   0  0  0  0  0  0  0  0  0  0  0  0
   -7.0860    0.8470   -1.5190 C   0  0  2  0  0  0  0  0  0  0  0  0
   -8.2260    0.3470   -2.4370 C   0  0  0  0  0  0  0  0  0  0  0  0
   -7.7130   -1.0530   -2.8400 C   0  0  0  0  0  0  0  0  0  0  0  0
   -0.1010   -4.4410   -0.0530 C   0  0  0  0  0  0  0  0  0  0  0  0
   -5.8720    0.0690   -1.9770 C   0  0  0  0  0  0  0  0  0  0  0  0
   -0.2070   -3.2090   -0.9530 C   0  0  0  0  0  0  0  0  0  0  0  0
   -1.4360   -2.3900   -0.5550 C   0  0  0  0  0  0  0  0  0  0  0  0
    8.6470   -0.2330   -0.8900 C   0  0  0  0  0  0  0  0  0  0  0  0
    0.9250    2.9870    0.0340 C   0  0  0  0  0  0  0  0  0  0  0  0
    2.0960    3.8240    0.5510 C   0  0  0  0  0  0  0  0  0  0  0  0
    1.0200    2.8610   -1.4880 C   0  0  0  0  0  0  0  0  0  0  0  0
   -2.5340   -1.1280    1.3010 C   0  0  0  0  0  0  0  0  0  0  0  0
    8.9130   -1.5110   -0.4310 C   0  0  0  0  0  0  0  0  0  0  0  0
    8.1330   -2.0620    0.5680 C   0  0  0  0  0  0  0  0  0  0  0  0
    7.0910   -1.3340    1.1130 C   0  0  0  0  0  0  0  0  0  0  0  0
    5.6830    0.7310    1.2400 C   0  0  0  0  0  0  0  0  0  0  0  0
   -6.6480    0.8650    2.3050 C   0  0  0  0  0  0  0  0  0  0  0  0
    3.3520    1.1030    0.8860 C   0  0  0  0  0  0  0  0  0  0  0  0
    2.1920    0.9050    0.2280 N   0  0  0  0  0  0  0  0  0  0  0  0
   -1.4190    0.9990    0.8410 N   0  0  0  0  0  0  0  0  0  0  0  0
   -5.0370    0.3390    0.5410 N   0  0  0  0  0  0  0  0  0  0  0  0
   -6.2520   -0.9860   -2.7190 N   0  0  0  0  0  0  0  0  0  0  0  0
   -4.7240    0.3550   -1.7130 O   0  0  0  0  0  0  0  0  0  0  0  0
    3.3880    1.8540    1.8410 O   0  0  0  0  0  0  0  0  0  0  0  0
   -0.1360   -0.0110   -0.6610 O   0  0  0  0  0  0  0  0  0  0  0  0
   -3.7940    2.0330    1.2540 O   0  0  0  0  0  0  0  0  0  0  0  0
    4.4700    0.4700    0.4850 O   0  0  0  0  0  0  0  0  0  0  0  0
   -6.9540   -0.5120    2.5350 O   0  0  0  0  0  0  0  0  0  0  0  0
    9.6260    0.4590   -2.1460 Cl  0  0  0  0  0  0  0  0  0  0  0  0
    0.9800    1.6870    1.7510 H   0  0  0  0  0  0  0  0  0  0  0  0
   -0.4080   -1.3360    1.0170 H   0  0  0  0  0  0  0  0  0  0  0  0
   -2.5330   -0.0730   -0.5770 H   0  0  0  0  0  0  0  0  0  0  0  0
   -1.1040   -2.8630    2.8420 H   0  0  0  0  0  0  0  0  0  0  0  0
   -2.0930   -3.7900    1.6900 H   0  0  0  0  0  0  0  0  0  0  0  0
   -6.1280    2.1280    0.6390 H   0  0  0  0  0  0  0  0  0  0  0  0
    0.9270   -3.3870    1.5190 H   0  0  0  0  0  0  0  0  0  0  0  0
    0.1070   -4.8760    2.0470 H   0  0  0  0  0  0  0  0  0  0  0  0
   -7.4900   -0.5440    0.0760 H   0  0  0  0  0  0  0  0  0  0  0  0
   -8.3410    1.0120    0.2250 H   0  0  0  0  0  0  0  0  0  0  0  0
    7.3930    1.4900   -0.7080 H   0  0  0  0  0  0  0  0  0  0  0  0
   -6.9260    1.9170   -1.6540 H   0  0  0  0  0  0  0  0  0  0  0  0
   -9.1650    0.2760   -1.8880 H   0  0  0  0  0  0  0  0  0  0  0  0
   -8.3340    0.9900   -3.3100 H   0  0  0  0  0  0  0  0  0  0  0  0
   -8.1140   -1.8100   -2.1660 H   0  0  0  0  0  0  0  0  0  0  0  0
   -7.9960   -1.2760   -3.8690 H   0  0  0  0  0  0  0  0  0  0  0  0
    0.7750   -5.0240   -0.3360 H   0  0  0  0  0  0  0  0  0  0  0  0
   -0.9960   -5.0520   -0.1670 H   0  0  0  0  0  0  0  0  0  0  0  0
    0.6890   -2.5980   -0.8390 H   0  0  0  0  0  0  0  0  0  0  0  0
   -0.3010   -3.5250   -1.9920 H   0  0  0  0  0  0  0  0  0  0  0  0
   -2.3320   -3.0010   -0.6690 H   0  0  0  0  0  0  0  0  0  0  0  0
   -1.5120   -1.5120   -1.1960 H   0  0  0  0  0  0  0  0  0  0  0  0
   -0.0140    3.4730    0.3000 H   0  0  0  0  0  0  0  0  0  0  0  0
    3.0340    3.3950    0.1960 H   0  0  0  0  0  0  0  0  0  0  0  0
    2.0030    4.8460    0.1830 H   0  0  0  0  0  0  0  0  0  0  0  0
    2.0880    3.8280    1.6410 H   0  0  0  0  0  0  0  0  0  0  0  0
    0.1850    2.2650   -1.8570 H   0  0  0  0  0  0  0  0  0  0  0  0
    0.9840    3.8540   -1.9380 H   0  0  0  0  0  0  0  0  0  0  0  0
    1.9590    2.3760   -1.7550 H   0  0  0  0  0  0  0  0  0  0  0  0
   -3.4350   -1.7080    1.1040 H   0  0  0  0  0  0  0  0  0  0  0  0
   -2.4820   -0.8880    2.3630 H   0  0  0  0  0  0  0  0  0  0  0  0
    9.7260   -2.0800   -0.8560 H   0  0  0  0  0  0  0  0  0  0  0  0
    8.3400   -3.0590    0.9270 H   0  0  0  0  0  0  0  0  0  0  0  0
    6.4820   -1.7640    1.8940 H   0  0  0  0  0  0  0  0  0  0  0  0
    5.5350    0.4360    2.2790 H   0  0  0  0  0  0  0  0  0  0  0  0
    5.9170    1.7950    1.1950 H   0  0  0  0  0  0  0  0  0  0  0  0
   -5.8100    1.1610    2.9360 H   0  0  0  0  0  0  0  0  0  0  0  0
   -7.5180    1.4760    2.5450 H   0  0  0  0  0  0  0  0  0  0  0  0
    2.1640    0.3050   -0.5340 H   0  0  0  0  0  0  0  0  0  0  0  0
   -1.5110    1.6930    1.5130 H   0  0  0  0  0  0  0  0  0  0  0  0
   -5.0770   -0.5560    0.1690 H   0  0  0  0  0  0  0  0  0  0  0  0
   -5.6400   -1.6200   -3.1220 H   0  0  0  0  0  0  0  0  0  0  0  0
   -7.2000   -0.7130    3.4480 H   0  0  0  0  0  0  0  0  0  0  0  0
 24 25  2  0  0  0  0
 19 24  1  0  0  0  0
 25 26  1  0  0  0  0
 19 40  1  0  0  0  0
 20 21  1  0  0  0  0
 20 22  1  0  0  0  0
 11 19  2  0  0  0  0
 17 18  1  0  0  0  0
 15 17  1  0  0  0  0
  4 18  1  0  0  0  0
  2 20  1  0  0  0  0
  1 26  2  0  0  0  0
  6 37  2  0  0  0  0
  4 23  1  0  0  0  0
  5 23  1  0  0  0  0
  2  3  1  0  0  0  0
  2 30  1  0  0  0  0
 29 35  2  0  0  0  0
  5 31  1  0  0  0  0
  3 31  1  0  0  0  0
  4  7  1  0  0  0  0
  1 11  1  0  0  0  0
  1 27  1  0  0  0  0
  9 15  1  0  0  0  0
  5  6  1  0  0  0  0
  6 32  1  0  0  0  0
  3 36  2  0  0  0  0
 29 30  1  0  0  0  0
 29 38  1  0  0  0  0
  7  9  1  0  0  0  0
 13 14  1  0  0  0  0
 12 13  1  0  0  0  0
 14 33  1  0  0  0  0
  8 32  1  0  0  0  0
  8 28  1  0  0  0  0
  8 10  1  0  0  0  0
 27 38  1  0  0  0  0
 28 39  1  0  0  0  0
 10 12  1  0  0  0  0
 12 16  1  0  0  0  0
 16 33  1  0  0  0  0
 16 34  2  0  0  0  0
  2 41  1  0  0  0  0
  4 42  1  0  0  0  0
  5 43  1  0  0  0  0
  7 44  1  0  0  0  0
  7 45  1  0  0  0  0
  8 46  1  0  0  0  0
  9 47  1  0  0  0  0
  9 48  1  0  0  0  0
 10 49  1  0  0  0  0
 10 50  1  0  0  0  0
 11 51  1  0  0  0  0
 12 52  1  0  0  0  0
 13 53  1  0  0  0  0
 13 54  1  0  0  0  0
 14 55  1  0  0  0  0
 14 56  1  0  0  0  0
 15 57  1  0  0  0  0
 15 58  1  0  0  0  0
 17 59  1  0  0  0  0
 17 60  1  0  0  0  0
 18 61  1  0  0  0  0
 18 62  1  0  0  0  0
 20 63  1  0  0  0  0
 21 64  1  0  0  0  0
 21 65  1  0  0  0  0
 21 66  1  0  0  0  0
 22 67  1  0  0  0  0
 22 68  1  0  0  0  0
 22 69  1  0  0  0  0
 23 70  1  0  0  0  0
 23 71  1  0  0  0  0
 24 72  1  0  0  0  0
 25 73  1  0  0  0  0
 26 74  1  0  0  0  0
 27 75  1  0  0  0  0
 27 76  1  0  0  0  0
 28 77  1  0  0  0  0
 28 78  1  0  0  0  0
 30 79  1  0  0  0  0
 31 80  1  0  0  0  0
 32 81  1  0  0  0  0
 33 82  1  0  0  0  0
 39 83  1  0  0  0  0
M  END
> <OPENEYE_ISO_SMILES>
CC(C)[C@@H](C(=O)N[C@@H](CC1CCCCC1)C(=O)N[C@@H](C[C@@H]2CCNC2=O)CO)NC(=O)OCc3cccc(c3)Cl

> <OPENEYE_INCHI>
InChI=1S/C29H43ClN4O6/c1-18(2)25(34-29(39)40-17-20-9-6-10-22(30)13-20)28(38)33-24(14-19-7-4-3-5-8-19)27(37)32-23(16-35)15-21-11-12-31-26(21)36/h6,9-10,13,18-19,21,23-25,35H,3-5,7-8,11-12,14-17H2,1-2H3,(H,31,36)(H,32,37)(H,33,38)(H,34,39)/t21-,23-,24-,25-/m0/s1

> <OPENEYE_INCHIKEY>
KPOIPVBFQVQSRG-LFBFJMOVSA-N

> <FORMULA>
C29H43ClN4O6

$$$$
