@<TRIPOS>MOLECULE
/home/pku/3cl/gett_pdb/7LZY/7LZY_mol2/ligand/7LZY_YMJ.pdb
 31 32 0 0 0
SMALL
GASTEIGER

@<TRIPOS>ATOM
      1  C21        9.5230   16.5750   23.2970 C.3   401  YMJ401      0.0000
      2  C14        7.9760    2.2800   19.5640 C.3   401  YMJ401      0.2036
      3  C13        6.1470    6.2520   20.2610 C.3   401  YMJ401      0.0326
      4  C12        5.5200    7.5940   19.9290 C.3   401  YMJ401      0.1156
      5  C16       11.2720   10.8150   23.2720 C.3   401  YMJ401      0.0437
      6  C15       10.3360    9.8870   22.5360 C.3   401  YMJ401      0.1705
      7  C11        6.8170    6.9930   18.0940 C.2   401  YMJ401      0.2410
      8  C18        9.5940   12.6930   23.0780 C.3   401  YMJ401      0.0002
      9  C19        9.3570   14.1440   22.6710 C.3   401  YMJ401      0.0000
     10  C1        10.4840    7.5280   22.1500 C.2   401  YMJ401      0.4214
     11  C10        7.2540    6.0860   19.2270 C.3   401  YMJ401      0.0818
     12  C17       11.0400   12.2670   22.8540 C.3   401  YMJ401      0.0037
     13  C2        10.7800    5.1170   22.1060 C.3   401  YMJ401      0.1761
     14  C20       10.0720   15.1850   23.5150 C.3   401  YMJ401      0.0000
     15  C22        8.6540   11.7360   22.3540 C.3   401  YMJ401      0.0037
     16  C23        8.8930   10.2810   22.7570 C.3   401  YMJ401      0.0437
     17  C3        11.4430    4.0770   23.0020 C.3   401  YMJ401      0.0312
     18  C4        12.9510    4.2620   23.1650 C.3   401  YMJ401      0.0022
     19  C5        13.6850    3.8480   21.8980 C.3   401  YMJ401      0.0001
     20  C6        13.4720    3.4800   24.3560 C.3   401  YMJ401      0.0001
     21  C7         9.3680    4.7000   21.7120 C.2   401  YMJ401      0.2614
     22  C8         7.9270    3.7450   19.9570 C.3   401  YMJ401      0.1287
     23  C9         7.5390    4.6490   18.7900 C.3   401  YMJ401      0.0335
     24  N1        10.7930    6.4000   22.7770 N.am  401  YMJ401     -0.1611
     25  N2         9.2220    4.1610   20.4990 N.am  401  YMJ401     -0.2030
     26  N3         5.7720    7.7060   18.4970 N.am  401  YMJ401     -0.2054
     27  O1        10.2390    7.6530   20.9650 O.2   401  YMJ401     -0.2246
     28  O2         7.3650    7.0740   16.9870 O.2   401  YMJ401     -0.2734
     29  O3         8.3650    1.4640   20.6470 O.3   401  YMJ401     -0.2185
     30  O4         8.4290    4.8820   22.4810 O.2   401  YMJ401     -0.2715
     31  O5        10.5130    8.5320   23.0510 O.3   401  YMJ401     -0.4373
@<TRIPOS>BOND
     1    28     7    2
     2     7    26   am
     3     7    11    1
     4    26     4    1
     5    23    11    1
     6    23    22    1
     7    11     3    1
     8     2    22    1
     9     2    29    1
    10     4     3    1
    11    22    25    1
    12    25    21   am
    13    27    10    2
    14    21    13    1
    15    21    30    2
    16    19    18    1
    17    13    24    1
    18    13    17    1
    19    10    24   am
    20    10    31    1
    21    15    16    1
    22    15     8    1
    23     6    16    1
    24     6    31    1
    25     6     5    1
    26     9     8    1
    27     9    14    1
    28    12     8    1
    29    12     5    1
    30    17    18    1
    31    18    20    1
    32     1    14    1
