O2A
  -OEChem-02242320033D

 23 24  0     0  0  0  0  0  0999 V2000
    2.8270    0.4220   -0.0020 N   0  0  0  0  0  0  0  0  0  0  0  0
    0.3300    1.7940   -0.0000 C   0  0  0  0  0  0  0  0  0  0  0  0
   -0.8880    2.4510    0.0000 C   0  0  0  0  0  0  0  0  0  0  0  0
   -2.0690    1.7400    0.0010 C   0  0  0  0  0  0  0  0  0  0  0  0
   -2.0430    0.3440    0.0010 C   0  0  0  0  0  0  0  0  0  0  0  0
   -3.0790   -0.6930    0.0010 C   0  0  0  0  0  0  0  0  0  0  0  0
   -0.8130   -0.3370   -0.0000 C   0  0  0  0  0  0  0  0  0  0  0  0
    4.1200   -0.2670    0.0030 C   0  0  0  0  0  0  0  0  0  0  0  0
    1.6840   -0.2920   -0.0010 C   0  0  0  0  0  0  0  0  0  0  0  0
    1.7250   -1.5070   -0.0010 O   0  0  0  0  0  0  0  0  0  0  0  0
    0.3820    0.4020   -0.0010 C   0  0  0  0  0  0  0  0  0  0  0  0
   -2.4460   -1.8760    0.0000 C   0  0  0  0  0  0  0  0  0  0  0  0
   -1.0910   -1.6790   -0.0000 N   0  0  0  0  0  0  0  0  0  0  0  0
    2.7950    1.3910   -0.0020 H   0  0  0  0  0  0  0  0  0  0  0  0
    1.2470    2.3650   -0.0050 H   0  0  0  0  0  0  0  0  0  0  0  0
   -0.9140    3.5310    0.0000 H   0  0  0  0  0  0  0  0  0  0  0  0
   -3.0140    2.2620    0.0020 H   0  0  0  0  0  0  0  0  0  0  0  0
   -4.1470   -0.5340    0.0020 H   0  0  0  0  0  0  0  0  0  0  0  0
    4.9240    0.4690    0.0020 H   0  0  0  0  0  0  0  0  0  0  0  0
    4.1980   -0.8880    0.8960 H   0  0  0  0  0  0  0  0  0  0  0  0
    4.2010   -0.8950   -0.8840 H   0  0  0  0  0  0  0  0  0  0  0  0
   -2.9330   -2.8400    0.0010 H   0  0  0  0  0  0  0  0  0  0  0  0
   -0.4260   -2.3860   -0.0010 H   0  0  0  0  0  0  0  0  0  0  0  0
  1  8  1  0  0  0  0
  1  9  1  0  0  0  0
  9 10  2  0  0  0  0
  9 11  1  0  0  0  0
  2 11  2  0  0  0  0
  2  3  1  0  0  0  0
  7 11  1  0  0  0  0
  3  4  2  0  0  0  0
  7 13  1  0  0  0  0
  5  7  2  0  0  0  0
 12 13  1  0  0  0  0
  4  5  1  0  0  0  0
  5  6  1  0  0  0  0
  6 12  2  0  0  0  0
  1 14  1  0  0  0  0
  2 15  1  0  0  0  0
  3 16  1  0  0  0  0
  4 17  1  0  0  0  0
  6 18  1  0  0  0  0
  8 19  1  0  0  0  0
  8 20  1  0  0  0  0
  8 21  1  0  0  0  0
 12 22  1  0  0  0  0
 13 23  1  0  0  0  0
M  END
> <OPENEYE_ISO_SMILES>
CNC(=O)c1cccc2c1[nH]cc2

> <OPENEYE_INCHI>
InChI=1S/C10H10N2O/c1-11-10(13)8-4-2-3-7-5-6-12-9(7)8/h2-6,12H,1H3,(H,11,13)

> <OPENEYE_INCHIKEY>
OKVUYVXDTGOYRU-UHFFFAOYSA-N

> <FORMULA>
C10H10N2O

$$$$
