@<TRIPOS>MOLECULE
/home/pku/3cl/gett_pdb/7CBT/7CBT_mol2/ligand/7CBT_K36.pdb
 59 60 0 0 0
SMALL
GASTEIGER

@<TRIPOS>ATOM
      1  C7        -9.7230   31.8840    0.2090 C.3   401  K36401      0.1191
      2  O8        -9.2710   31.3440   -1.0080 O.3   401  K36401     -0.4456
      3  C9        -8.8340   30.0250   -0.7500 C.2   401  K36401      0.4012
      4  O10       -9.4260   29.1630   -1.2910 O.2   401  K36401     -0.2265
      5  C1       -11.2520   31.9570    0.2850 C.ar  401  K36401     -0.0103
      6  C2       -11.9720   32.1810   -0.8740 C.ar  401  K36401     -0.0554
      7  C3       -13.3620   32.2640   -0.7950 C.ar  401  K36401     -0.0614
      8  C4       -14.0130   32.1320    0.4280 C.ar  401  K36401     -0.0617
      9  C5       -13.2770   31.9050    1.5880 C.ar  401  K36401     -0.0614
     10  C6       -11.8950   31.8190    1.5200 C.ar  401  K36401     -0.0554
     11  N11       -7.7180   29.7290    0.1770 N.am  401  K36401     -0.2698
     12  C12       -7.4560   28.3450    0.4990 C.3   401  K36401      0.1027
     13  C17       -8.7880   27.7750    1.0370 C.2   401  K36401      0.2338
     14  O18       -9.3810   28.4250    1.8370 O.2   401  K36401     -0.2738
     15  C13       -6.4410   28.1030    1.5740 C.3   401  K36401     -0.0235
     16  C14       -5.0750   27.8750    0.9270 C.3   401  K36401     -0.0446
     17  C15       -4.7500   29.0210   -0.0060 C.3   401  K36401     -0.0626
     18  C16       -4.0750   27.8860    2.0810 C.3   401  K36401     -0.0626
     19  N19       -9.2840   26.4720    0.5480 N.am  401  K36401     -0.3084
     20  C20      -10.5680   25.8590    0.9660 C.3   401  K36401      0.0522
     21  C21      -10.1720   24.4240    1.3860 C.3   401  K36401      0.1010
     22  O22      -11.0640   23.8900    2.3370 O.3   401  K36401     -0.3873
     23  C24      -11.5930   25.8300   -0.1720 C.3   401  K36401     -0.0209
     24  C25      -11.9750   27.2470   -0.8020 C.3   401  K36401      0.0387
     25  C26      -12.8440   27.9920    0.2350 C.3   401  K36401     -0.0262
     26  C27      -13.9640   28.5970   -0.5050 C.3   401  K36401      0.0123
     27  N28      -14.0910   27.8540   -1.8160 N.am  401  K36401     -0.3151
     28  C29      -12.8110   27.0620   -1.9800 C.2   401  K36401      0.2162
     29  O30      -12.5860   26.3720   -2.9140 O.2   401  K36401     -0.2755
     30  H2        -9.4010   31.3280    0.9350 H     401  K36401      0.0749
     31  H1        -9.3630   32.7800    0.3040 H     401  K36401      0.0749
     32  H3       -11.5370   32.2740   -1.6910 H     401  K36401      0.0621
     33  H18      -13.8590   32.4100   -1.5680 H     401  K36401      0.0618
     34  H28      -14.9400   32.1950    0.4710 H     401  K36401      0.0618
     35  H29      -13.7110   31.8110    2.4050 H     401  K36401      0.0618
     36  H30      -11.3970   31.6700    2.2910 H     401  K36401      0.0621
     37  H4        -7.2420   30.3610    0.5130 H     401  K36401      0.1528
     38  H5        -7.1060   27.9360   -0.3080 H     401  K36401      0.0596
     39  H6        -6.6920   27.3190    2.0880 H     401  K36401      0.0290
     40  H7        -6.3980   28.8740    2.1610 H     401  K36401      0.0290
     41  H8        -5.0540   27.0500    0.4180 H     401  K36401      0.0296
     42  H9        -3.8720   28.8810   -0.3950 H     401  K36401      0.0232
     43  H10       -4.7540   29.8530    0.4910 H     401  K36401      0.0232
     44  H11       -5.4140   29.0620   -0.7110 H     401  K36401      0.0232
     45  H12       -4.2710   28.6300    2.6720 H     401  K36401      0.0232
     46  H13       -4.1440   27.0550    2.5760 H     401  K36401      0.0232
     47  H14       -3.1760   27.9800    1.7300 H     401  K36401      0.0232
     48  H15       -8.7970   26.0420   -0.0150 H     401  K36401      0.1491
     49  H16      -10.9950   26.3620    1.6770 H     401  K36401      0.0525
     50  H17       -9.2850   24.4520    1.7780 H     401  K36401      0.0638
     51  H19      -10.7350   23.9800    3.1160 H     401  K36401      0.2100
     52  H20      -11.2330   25.2770   -0.8830 H     401  K36401      0.0291
     53  H21      -12.4060   25.4280    0.1700 H     401  K36401      0.0291
     54  H22      -11.1950   27.7670   -1.0520 H     401  K36401      0.0395
     55  H23      -13.1840   27.3640    0.8920 H     401  K36401      0.0288
     56  H24      -12.3200   28.6860    0.6660 H     401  K36401      0.0288
     57  H25      -13.7760   29.5330   -0.6760 H     401  K36401      0.0462
     58  H26      -14.7830   28.5010    0.0060 H     401  K36401      0.0462
     59  H27      -14.7570   27.8770   -2.3600 H     401  K36401      0.1487
@<TRIPOS>BOND
     1    29    28    2
     2    59    27    1
     3    28    27   am
     4    28    24    1
     5    27    26    1
     6    32     6    1
     7    33     7    1
     8     4     3    2
     9    54    24    1
    10     2     3    1
    11     2     1    1
    12    52    23    1
    13     6     7   ar
    14     6     5   ar
    15    24    23    1
    16    24    25    1
    17     7     8   ar
    18     3    11   am
    19    44    17    1
    20    57    26    1
    21    26    58    1
    22    26    25    1
    23    42    17    1
    24    38    12    1
    25    23    53    1
    26    23    20    1
    27    48    19    1
    28    17    43    1
    29    17    16    1
    30    11    12    1
    31    11    37    1
    32     1     5    1
    33     1    31    1
    34     1    30    1
    35    25    56    1
    36    25    55    1
    37     5    10   ar
    38    41    16    1
    39     8    34    1
    40     8     9   ar
    41    12    13    1
    42    12    15    1
    43    19    20    1
    44    19    13   am
    45    16    15    1
    46    16    18    1
    47    20    21    1
    48    20    49    1
    49    13    14    2
    50    21    50    1
    51    21    22    1
    52    10     9   ar
    53    10    36    1
    54    15    39    1
    55    15    40    1
    56     9    35    1
    57    47    18    1
    58    18    46    1
    59    18    45    1
    60    22    51    1
