3NI
  -OEChem-02242320003D

  1  0  0     0  0  0  0  0  0999 V2000
    0.0000    0.0000    0.0000 Ni  0  1  0  0  0  0  0  0  0  0  0  0
M  CHG  1   1   3
M  END
> <OPENEYE_ISO_SMILES>
[Ni+3]

> <OPENEYE_INCHI>
InChI=1S/Ni/q+3

> <OPENEYE_INCHIKEY>
JDRCAGKFDGHRNQ-UHFFFAOYSA-N

> <FORMULA>
Ni+3

$$$$
