@<TRIPOS>MOLECULE
/home/pku/3cl/gett_pdb/5S2T/5S2T_mol2/ligand/5S2T_W0D.pdb
 18 20 0 0 0
SMALL
GASTEIGER

@<TRIPOS>ATOM
      1  N1        -6.9050   14.8820   -0.5050 N.ar  401  W0D401     -0.2274
      2  C4        -4.8040   15.2930   -1.8510 C.ar  401  W0D401      0.0207
      3  C5        -3.4240   15.3870   -1.7540 C.ar  401  W0D401      0.0016
      4  C6        -2.7800   15.2430   -0.5290 C.ar  401  W0D401      0.0016
      5  C7        -3.5010   14.9990    0.6310 C.ar  401  W0D401      0.0207
      6  C8        -4.8760   14.8980    0.5250 C.ar  401  W0D401      0.1003
      7  C10       -9.2580   16.3730    5.9660 C.ar  401  W0D401      0.0455
      8  O         -9.6260   16.3010    2.9690 O.2   401  W0D401     -0.2650
      9  C         -8.8960   15.4970    3.5560 C.2   401  W0D401      0.2999
     10  C9        -8.7220   15.5610    5.0260 C.ar  401  W0D401      0.2002
     11  O1        -7.8390   14.6990    5.6090 O.2   401  W0D401     -0.4458
     12  C12       -7.8400   15.0050    6.9420 C.ar  401  W0D401      0.1798
     13  C11       -8.6770   16.0020    7.1980 C.ar  401  W0D401      0.0440
     14  N         -8.2220   14.5340    2.9240 N.am  401  W0D401     -0.1908
     15  C1        -8.3450   14.3510    1.4920 C.3   401  W0D401      0.1807
     16  C2        -7.0430   14.6340    0.7840 C.ar  401  W0D401      0.1610
     17  N2        -5.8640   14.6360    1.4500 N.ar  401  W0D401     -0.2274
     18  C3        -5.5360   15.0450   -0.6950 C.ar  401  W0D401      0.1003
@<TRIPOS>BOND
     1     2     3   ar
     2     2    18   ar
     3     3     4   ar
     4    18     1   ar
     5    18     6   ar
     6     4     5   ar
     7     1    16   ar
     8     6     5   ar
     9     6    17   ar
    10    16    17   ar
    11    16    15    1
    12    15    14    1
    13    14     9   am
    14     8     9    2
    15     9    10    1
    16    10    11   ar
    17    10     7   ar
    18    11    12   ar
    19     7    13   ar
    20    12    13   ar
