W5G
  -OEChem-02242320043D

 33 36  0     1  0  0  0  0  0999 V2000
   -3.0300    1.6280    0.2280 N   0  0  0  0  0  0  0  0  0  0  0  0
   -2.9970    0.3240   -0.0420 C   0  0  0  0  0  0  0  0  0  0  0  0
   -3.3560   -1.8440   -0.4940 C   0  0  0  0  0  0  0  0  0  0  0  0
   -1.7440   -0.3060   -0.1580 C   0  0  0  0  0  0  0  0  0  0  0  0
    3.7300    0.2650   -1.4460 C   0  0  0  0  0  0  0  0  0  0  0  0
    4.3010    1.1160   -0.3100 C   0  0  0  0  0  0  0  0  0  0  0  0
    3.0910    0.2180   -0.0590 C   0  0  0  0  0  0  0  0  0  0  0  0
    3.3010   -1.0460    0.7810 C   0  0  0  0  0  0  0  0  0  0  0  0
    2.1140   -1.9880    0.5490 C   0  0  0  0  0  0  0  0  0  0  0  0
    0.8120   -1.2370    0.8370 C   0  0  0  0  0  0  0  0  0  0  0  0
    1.7270    0.8910    0.1210 C   0  0  0  0  0  0  0  0  0  0  0  0
   -0.5840    0.4640    0.0140 C   0  0  0  0  0  0  0  0  0  0  0  0
   -1.9160    2.3120    0.3820 C   0  0  0  0  0  0  0  0  0  0  0  0
   -2.0200   -1.7110   -0.4520 C   0  0  0  0  0  0  0  0  0  0  0  0
    0.6700   -0.1100   -0.0910 N   0  0  2  0  0  0  0  0  0  0  0  0
   -0.7210    1.7600    0.2800 N   0  0  0  0  0  0  0  0  0  0  0  0
   -3.9510   -0.6330   -0.2500 N   0  0  0  0  0  0  0  0  0  0  0  0
   -3.8830   -2.7660   -0.6920 H   0  0  0  0  0  0  0  0  0  0  0  0
    3.1830    0.7800   -2.2350 H   0  0  0  0  0  0  0  0  0  0  0  0
    4.3070   -0.6040   -1.7640 H   0  0  0  0  0  0  0  0  0  0  0  0
    5.2540    0.8080    0.1200 H   0  0  0  0  0  0  0  0  0  0  0  0
    4.1300    2.1920   -0.3520 H   0  0  0  0  0  0  0  0  0  0  0  0
    4.2250   -1.5390    0.4760 H   0  0  0  0  0  0  0  0  0  0  0  0
    3.3570   -0.7800    1.8360 H   0  0  0  0  0  0  0  0  0  0  0  0
    2.1160   -2.3290   -0.4860 H   0  0  0  0  0  0  0  0  0  0  0  0
    2.1950   -2.8470    1.2160 H   0  0  0  0  0  0  0  0  0  0  0  0
   -0.0320   -1.9160    0.7150 H   0  0  0  0  0  0  0  0  0  0  0  0
    0.8290   -0.8630    1.8610 H   0  0  0  0  0  0  0  0  0  0  0  0
    1.6500    1.2940    1.1310 H   0  0  0  0  0  0  0  0  0  0  0  0
    1.6180    1.6960   -0.6050 H   0  0  0  0  0  0  0  0  0  0  0  0
   -1.9830    3.3670    0.6000 H   0  0  0  0  0  0  0  0  0  0  0  0
   -1.2910   -2.4920   -0.6050 H   0  0  0  0  0  0  0  0  0  0  0  0
   -4.9080   -0.4780   -0.2290 H   0  0  0  0  0  0  0  0  0  0  0  0
  8  9  1  0  0  0  0
  7  8  1  0  0  0  0
  9 10  1  0  0  0  0
  5  7  1  0  0  0  0
  5  6  1  0  0  0  0
  7 11  1  0  0  0  0
  6  7  1  0  0  0  0
 10 15  1  0  0  0  0
 11 15  1  0  0  0  0
 12 15  1  0  0  0  0
  4 12  2  0  0  0  0
 12 16  1  0  0  0  0
  4 14  1  0  0  0  0
  3 14  2  0  0  0  0
  2  4  1  0  0  0  0
 13 16  2  0  0  0  0
  3 17  1  0  0  0  0
  2 17  1  0  0  0  0
  1  2  2  0  0  0  0
  1 13  1  0  0  0  0
  3 18  1  0  0  0  0
  5 19  1  0  0  0  0
  5 20  1  0  0  0  0
  6 21  1  0  0  0  0
  6 22  1  0  0  0  0
  8 23  1  0  0  0  0
  8 24  1  0  0  0  0
  9 25  1  0  0  0  0
  9 26  1  0  0  0  0
 10 27  1  0  0  0  0
 10 28  1  0  0  0  0
 11 29  1  0  0  0  0
 11 30  1  0  0  0  0
 13 31  1  0  0  0  0
 14 32  1  0  0  0  0
 17 33  1  0  0  0  0
M  END
> <OPENEYE_ISO_SMILES>
c1c[nH]c2c1c(ncn2)[N@@]3CCCC4(C3)CC4

> <OPENEYE_INCHI>
InChI=1S/C13H16N4/c1-3-13(4-5-13)8-17(7-1)12-10-2-6-14-11(10)15-9-16-12/h2,6,9H,1,3-5,7-8H2,(H,14,15,16)

> <OPENEYE_INCHIKEY>
GGTHBUVHAUVHID-UHFFFAOYSA-N

> <FORMULA>
C13H16N4

$$$$
