TG3
  -OEChem-02242320043D

 97 98  0     1  0  0  0  0  0999 V2000
   -7.9580    5.8930   -0.8340 C   0  0  0  0  0  0  0  0  0  0  0  0
   -7.9240    4.5930   -0.0290 C   0  0  0  0  0  0  0  0  0  0  0  0
   -6.7940    3.7880   -0.4550 O   0  0  0  0  0  0  0  0  0  0  0  0
   -6.6210    2.6070    0.1580 C   0  0  0  0  0  0  0  0  0  0  0  0
   -7.3890    2.2570    1.0230 O   0  0  0  0  0  0  0  0  0  0  0  0
   -5.4690    1.7170   -0.2320 C   0  0  0  0  0  0  0  0  0  0  0  0
   -5.5020    0.4410    0.6120 C   0  0  0  0  0  0  0  0  0  0  0  0
   -4.3320   -0.4630    0.2160 C   0  0  2  0  0  0  0  0  0  0  0  0
   -4.4350   -1.7900    0.9700 C   0  0  0  0  0  0  0  0  0  0  0  0
   -5.6910   -2.5380    0.5170 C   0  0  2  0  0  0  0  0  0  0  0  0
   -5.8350   -3.8700    1.2890 C   0  0  0  0  0  0  0  0  0  0  0  0
   -5.1470   -4.8660    0.3300 C   0  0  0  0  0  0  0  0  0  0  0  0
   -5.2630   -4.2680   -1.0050 N   0  0  0  0  0  0  0  0  0  0  0  0
   -5.5620   -2.9600   -0.9300 C   0  0  0  0  0  0  0  0  0  0  0  0
   -5.7090   -2.2250   -1.8830 O   0  0  0  0  0  0  0  0  0  0  0  0
   -3.0690    0.1960    0.5570 N   0  0  0  0  0  0  0  0  0  0  0  0
   -1.9540   -0.0790   -0.1490 C   0  0  0  0  0  0  0  0  0  0  0  0
   -1.9790   -0.9240   -1.0180 O   0  0  0  0  0  0  0  0  0  0  0  0
   -0.6760    0.6650    0.1420 C   0  0  2  0  0  0  0  0  0  0  0  0
   -0.7960    2.1040   -0.3640 C   0  0  0  0  0  0  0  0  0  0  0  0
   -1.9300    2.8130    0.3780 C   0  0  0  0  0  0  0  0  0  0  0  0
   -1.5460    2.9870    1.8490 C   0  0  0  0  0  0  0  0  0  0  0  0
   -2.1730    4.1850   -0.2520 C   0  0  0  0  0  0  0  0  0  0  0  0
    0.4410    0.0010   -0.5350 N   0  0  0  0  0  0  0  0  0  0  0  0
    1.6880    0.1030   -0.0370 C   0  0  0  0  0  0  0  0  0  0  0  0
    1.8760    0.6750    1.0160 O   0  0  0  0  0  0  0  0  0  0  0  0
    2.8510   -0.4950   -0.7860 C   0  0  1  0  0  0  0  0  0  0  0  0
    4.1040   -0.1100   -0.1320 N   0  0  0  0  0  0  0  0  0  0  0  0
    5.1980    0.1540   -0.8740 C   0  0  0  0  0  0  0  0  0  0  0  0
    5.1720   -0.0150   -2.0770 O   0  0  0  0  0  0  0  0  0  0  0  0
    6.3200    0.6030   -0.2820 O   0  0  0  0  0  0  0  0  0  0  0  0
    7.4600    0.8660   -1.1420 C   0  0  0  0  0  0  0  0  0  0  0  0
    8.6160    1.3580   -0.3090 C   0  0  0  0  0  0  0  0  0  0  0  0
    9.5180    0.4560    0.2220 C   0  0  0  0  0  0  0  0  0  0  0  0
   10.5780    0.9080    0.9870 C   0  0  0  0  0  0  0  0  0  0  0  0
   10.7350    2.2610    1.2190 C   0  0  0  0  0  0  0  0  0  0  0  0
    9.8320    3.1630    0.6880 C   0  0  0  0  0  0  0  0  0  0  0  0
    8.7760    2.7120   -0.0820 C   0  0  0  0  0  0  0  0  0  0  0  0
    2.7260   -2.0200   -0.7910 C   0  0  1  0  0  0  0  0  0  0  0  0
    3.9120   -2.6270   -1.5420 C   0  0  0  0  0  0  0  0  0  0  0  0
    2.7170   -2.5010    0.5550 O   0  0  0  0  0  0  0  0  0  0  0  0
    1.7800   -3.5530    0.7900 C   0  0  0  0  0  0  0  0  0  0  0  0
    0.3590   -3.0280    0.5770 C   0  0  0  0  0  0  0  0  0  0  0  0
    2.0490   -4.7030   -0.1840 C   0  0  0  0  0  0  0  0  0  0  0  0
    1.9280   -4.0570    2.2270 C   0  0  0  0  0  0  0  0  0  0  0  0
   -8.0570    5.6610   -1.8950 H   0  0  0  0  0  0  0  0  0  0  0  0
   -8.8060    6.4980   -0.5140 H   0  0  0  0  0  0  0  0  0  0  0  0
   -7.0340    6.4480   -0.6680 H   0  0  0  0  0  0  0  0  0  0  0  0
   -7.8250    4.8250    1.0320 H   0  0  0  0  0  0  0  0  0  0  0  0
   -8.8480    4.0390   -0.1940 H   0  0  0  0  0  0  0  0  0  0  0  0
   -5.5530    1.4560   -1.2880 H   0  0  0  0  0  0  0  0  0  0  0  0
   -4.5300    2.2420   -0.0610 H   0  0  0  0  0  0  0  0  0  0  0  0
   -5.4180    0.7020    1.6670 H   0  0  0  0  0  0  0  0  0  0  0  0
   -6.4410   -0.0840    0.4410 H   0  0  0  0  0  0  0  0  0  0  0  0
   -4.3660   -0.6510   -0.8570 H   0  0  0  0  0  0  0  0  0  0  0  0
   -3.5550   -2.3970    0.7590 H   0  0  0  0  0  0  0  0  0  0  0  0
   -4.4950   -1.5950    2.0410 H   0  0  0  0  0  0  0  0  0  0  0  0
   -6.5750   -1.9160    0.6560 H   0  0  0  0  0  0  0  0  0  0  0  0
   -5.3140   -3.8250    2.2450 H   0  0  0  0  0  0  0  0  0  0  0  0
   -6.8850   -4.1270    1.4310 H   0  0  0  0  0  0  0  0  0  0  0  0
   -4.0970   -4.9850    0.6000 H   0  0  0  0  0  0  0  0  0  0  0  0
   -5.6560   -5.8290    0.3580 H   0  0  0  0  0  0  0  0  0  0  0  0
   -5.1400   -4.7540   -1.8350 H   0  0  0  0  0  0  0  0  0  0  0  0
   -3.0350    0.8300    1.2900 H   0  0  0  0  0  0  0  0  0  0  0  0
   -0.4960    0.6720    1.2170 H   0  0  0  0  0  0  0  0  0  0  0  0
    0.1410    2.6310   -0.1860 H   0  0  0  0  0  0  0  0  0  0  0  0
   -1.0110    2.0960   -1.4330 H   0  0  0  0  0  0  0  0  0  0  0  0
   -2.8390    2.2150    0.3090 H   0  0  0  0  0  0  0  0  0  0  0  0
   -2.3820    3.4280    2.3930 H   0  0  0  0  0  0  0  0  0  0  0  0
   -1.3040    2.0160    2.2790 H   0  0  0  0  0  0  0  0  0  0  0  0
   -0.6780    3.6430    1.9220 H   0  0  0  0  0  0  0  0  0  0  0  0
   -2.4470    4.0610   -1.3000 H   0  0  0  0  0  0  0  0  0  0  0  0
   -2.9810    4.6900    0.2770 H   0  0  0  0  0  0  0  0  0  0  0  0
   -1.2640    4.7830   -0.1830 H   0  0  0  0  0  0  0  0  0  0  0  0
    0.2820   -0.5130   -1.3430 H   0  0  0  0  0  0  0  0  0  0  0  0
    2.8490   -0.1270   -1.8130 H   0  0  0  0  0  0  0  0  0  0  0  0
    4.1460   -0.0440    0.8350 H   0  0  0  0  0  0  0  0  0  0  0  0
    7.7470   -0.0520   -1.6550 H   0  0  0  0  0  0  0  0  0  0  0  0
    7.1930    1.6250   -1.8780 H   0  0  0  0  0  0  0  0  0  0  0  0
    9.3960   -0.6010    0.0410 H   0  0  0  0  0  0  0  0  0  0  0  0
   11.2830    0.2030    1.4020 H   0  0  0  0  0  0  0  0  0  0  0  0
   11.5620    2.6140    1.8170 H   0  0  0  0  0  0  0  0  0  0  0  0
    9.9550    4.2210    0.8700 H   0  0  0  0  0  0  0  0  0  0  0  0
    8.0710    3.4170   -0.4970 H   0  0  0  0  0  0  0  0  0  0  0  0
    1.7980   -2.3060   -1.2850 H   0  0  0  0  0  0  0  0  0  0  0  0
    4.8420   -2.3070   -1.0710 H   0  0  0  0  0  0  0  0  0  0  0  0
    3.8440   -3.7140   -1.5110 H   0  0  0  0  0  0  0  0  0  0  0  0
    3.8960   -2.2910   -2.5790 H   0  0  0  0  0  0  0  0  0  0  0  0
    0.2650   -2.6320   -0.4340 H   0  0  0  0  0  0  0  0  0  0  0  0
   -0.3540   -3.8410    0.7170 H   0  0  0  0  0  0  0  0  0  0  0  0
    0.1520   -2.2360    1.2970 H   0  0  0  0  0  0  0  0  0  0  0  0
    3.0550   -5.0900   -0.0190 H   0  0  0  0  0  0  0  0  0  0  0  0
    1.3220   -5.4980   -0.0180 H   0  0  0  0  0  0  0  0  0  0  0  0
    1.9630   -4.3390   -1.2080 H   0  0  0  0  0  0  0  0  0  0  0  0
    1.7350   -3.2380    2.9200 H   0  0  0  0  0  0  0  0  0  0  0  0
    1.2130   -4.8600    2.4060 H   0  0  0  0  0  0  0  0  0  0  0  0
    2.9400   -4.4310    2.3780 H   0  0  0  0  0  0  0  0  0  0  0  0
 36 37  2  0  0  0  0
 37 38  1  0  0  0  0
 35 36  1  0  0  0  0
 33 38  2  0  0  0  0
 34 35  2  0  0  0  0
 33 34  1  0  0  0  0
 32 33  1  0  0  0  0
 21 22  1  0  0  0  0
 29 30  2  0  0  0  0
 31 32  1  0  0  0  0
 29 31  1  0  0  0  0
 28 29  1  0  0  0  0
 21 23  1  0  0  0  0
 20 21  1  0  0  0  0
 42 43  1  0  0  0  0
 19 20  1  0  0  0  0
 41 42  1  0  0  0  0
 39 41  1  0  0  0  0
 19 24  1  0  0  0  0
 24 25  1  0  0  0  0
 27 28  1  0  0  0  0
 27 39  1  0  0  0  0
 25 27  1  0  0  0  0
 42 44  1  0  0  0  0
 42 45  1  0  0  0  0
 17 19  1  0  0  0  0
 39 40  1  0  0  0  0
  1  2  1  0  0  0  0
 25 26  2  0  0  0  0
 17 18  2  0  0  0  0
 16 17  1  0  0  0  0
  2  3  1  0  0  0  0
  3  4  1  0  0  0  0
  8 16  1  0  0  0  0
  4  6  1  0  0  0  0
  6  7  1  0  0  0  0
  4  5  2  0  0  0  0
  7  8  1  0  0  0  0
  8  9  1  0  0  0  0
 11 12  1  0  0  0  0
 10 11  1  0  0  0  0
 12 13  1  0  0  0  0
  9 10  1  0  0  0  0
 10 14  1  0  0  0  0
 13 14  1  0  0  0  0
 14 15  2  0  0  0  0
  1 46  1  0  0  0  0
  1 47  1  0  0  0  0
  1 48  1  0  0  0  0
  2 49  1  0  0  0  0
  2 50  1  0  0  0  0
  6 51  1  0  0  0  0
  6 52  1  0  0  0  0
  7 53  1  0  0  0  0
  7 54  1  0  0  0  0
  8 55  1  0  0  0  0
  9 56  1  0  0  0  0
  9 57  1  0  0  0  0
 10 58  1  0  0  0  0
 11 59  1  0  0  0  0
 11 60  1  0  0  0  0
 12 61  1  0  0  0  0
 12 62  1  0  0  0  0
 13 63  1  0  0  0  0
 16 64  1  0  0  0  0
 19 65  1  0  0  0  0
 20 66  1  0  0  0  0
 20 67  1  0  0  0  0
 21 68  1  0  0  0  0
 22 69  1  0  0  0  0
 22 70  1  0  0  0  0
 22 71  1  0  0  0  0
 23 72  1  0  0  0  0
 23 73  1  0  0  0  0
 23 74  1  0  0  0  0
 24 75  1  0  0  0  0
 27 76  1  0  0  0  0
 28 77  1  0  0  0  0
 32 78  1  0  0  0  0
 32 79  1  0  0  0  0
 34 80  1  0  0  0  0
 35 81  1  0  0  0  0
 36 82  1  0  0  0  0
 37 83  1  0  0  0  0
 38 84  1  0  0  0  0
 39 85  1  0  0  0  0
 40 86  1  0  0  0  0
 40 87  1  0  0  0  0
 40 88  1  0  0  0  0
 43 89  1  0  0  0  0
 43 90  1  0  0  0  0
 43 91  1  0  0  0  0
 44 92  1  0  0  0  0
 44 93  1  0  0  0  0
 44 94  1  0  0  0  0
 45 95  1  0  0  0  0
 45 96  1  0  0  0  0
 45 97  1  0  0  0  0
M  END
> <OPENEYE_ISO_SMILES>
CCOC(=O)CC[C@H](C[C@@H]1CCNC1=O)NC(=O)[C@H](CC(C)C)NC(=O)[C@H]([C@@H](C)OC(C)(C)C)NC(=O)OCc2ccccc2

> <OPENEYE_INCHI>
InChI=1S/C33H52N4O8/c1-8-43-27(38)15-14-25(19-24-16-17-34-29(24)39)35-30(40)26(18-21(2)3)36-31(41)28(22(4)45-33(5,6)7)37-32(42)44-20-23-12-10-9-11-13-23/h9-13,21-22,24-26,28H,8,14-20H2,1-7H3,(H,34,39)(H,35,40)(H,36,41)(H,37,42)/t22-,24+,25-,26+,28+/m1/s1

> <OPENEYE_INCHIKEY>
GENYQFMDDNZIRG-UCWBBBRQSA-N

> <FORMULA>
C33H52N4O8

$$$$
