@<TRIPOS>MOLECULE
/home/pku/3cl/gett_pdb/8DD1/8DD1_mol2/ligand/8DD1_K36.pdb
 29 30 0 0 0
SMALL
GASTEIGER

@<TRIPOS>ATOM
      1  C7         9.5290    4.3010   22.2970 C.3   401  K36401      0.2368
      2  O8        10.2730    3.2620   22.8520 O.3   401  K36401     -0.4285
      3  C9        10.4310    2.1430   22.0380 C.2   401  K36401      0.4218
      4  O10       10.1250    2.1880   20.8970 O.2   401  K36401     -0.2245
      5  C1         8.0370    4.0580   22.5000 C.ar  401  K36401      0.0213
      6  C2         7.5920    3.0060   23.2800 C.ar  401  K36401     -0.0007
      7  C3         6.2380    2.7950   23.4530 C.ar  401  K36401     -0.0002
      8  C4         5.3250    3.6410   22.8530 C.ar  401  K36401     -0.0000
      9  C5         5.7690    4.6920   22.0760 C.ar  401  K36401     -0.0002
     10  C6         7.1220    4.9010   21.8990 C.ar  401  K36401     -0.0007
     11  N11       10.9710    0.9350   22.6210 N.am  401  K36401     -0.1611
     12  C12       11.0510   -0.2900   21.8600 C.3   401  K36401      0.1761
     13  C17        9.6410   -0.7600   21.5460 C.2   401  K36401      0.2614
     14  O18        8.8050   -0.7220   22.3730 O.2   401  K36401     -0.2715
     15  C13       11.7570   -1.3670   22.6750 C.3   401  K36401      0.0312
     16  C14       13.1330   -0.8670   23.0930 C.3   401  K36401      0.0022
     17  C15       13.8780   -1.9840   23.8170 C.3   401  K36401      0.0001
     18  C16       13.9130   -0.4620   21.8470 C.3   401  K36401      0.0001
     19  N19        9.3270   -1.2450   20.2250 N.am  401  K36401     -0.2030
     20  C20        7.9900   -1.6910   19.9220 C.3   401  K36401      0.1287
     21  C21        8.0370   -3.0970   19.3820 C.3   401  K36401      0.2036
     22  O22        6.8590   -3.8400   19.3730 O.3   401  K36401     -0.2185
     23  C24        7.4070   -0.7810   18.8370 C.3   401  K36401      0.0335
     24  C25        7.1300    0.6620   19.3440 C.3   401  K36401      0.0818
     25  C26        5.9200    0.6410   20.2020 C.3   401  K36401      0.0326
     26  C27        5.0870    1.8610   19.7810 C.3   401  K36401      0.1156
     27  N28        5.6180    2.2940   18.4200 N.am  401  K36401     -0.2054
     28  C29        6.8700    1.5540   18.1660 C.2   401  K36401      0.2410
     29  O30        7.5410    1.6500   17.2050 O.2   401  K36401     -0.2734
@<TRIPOS>BOND
     1    29    28    2
     2    28    27   am
     3    28    24    1
     4    27    26    1
     5    23    24    1
     6    23    20    1
     7    24    25    1
     8    22    21    1
     9    21    20    1
    10    26    25    1
    11    20    19    1
    12    19    13   am
    13     4     3    2
    14    13    12    1
    15    13    14    2
    16    18    16    1
    17    12    11    1
    18    12    15    1
    19    10     9   ar
    20    10     5   ar
    21     3    11   am
    22     3     2    1
    23     9     8   ar
    24     1     5    1
    25     1     2    1
    26     5     6   ar
    27    15    16    1
    28     8     7   ar
    29    16    17    1
    30     6     7   ar
