@<TRIPOS>MOLECULE
/home/pku/3cl/gett_pdb/5SSO/5SSO_mol2/ligand/5SSO_RSR.pdb
 43 47 0 0 0
SMALL
GASTEIGER

@<TRIPOS>ATOM
      1  C18      -43.3620  -27.4900   -0.1630 C.3   201  RSR201     -0.0426
      2  N1       -43.2920  -29.6320    6.5790 N.pl3 201  RSR201     -0.3274
      3  C16      -44.3580  -26.0020    1.0650 C.3   201  RSR201     -0.0426
      4  C17      -43.2450  -25.9680    0.0120 C.3   201  RSR201     -0.0517
      5  C15      -46.5370  -27.2780   -0.5220 C.2   201  RSR201      0.0807
      6  C14      -46.5720  -28.4360    1.7810 C.3   201  RSR201      0.0534
      7  C13      -45.7960  -28.1690    0.4740 C.3   201  RSR201      0.1727
      8  O2       -46.4100  -27.5300   -1.7070 O.co2 201  RSR201     -0.5465
      9  C12      -44.4720  -27.5530    0.9350 C.3   201  RSR201      0.0271
     10  C11      -44.1830  -28.3210    2.2170 C.3   201  RSR201      0.0226
     11  C10      -45.6690  -28.8710    4.0790 C.ar  201  RSR201      0.1364
     12  C9       -49.1610  -28.5690    3.5160 C.ar  201  RSR201     -0.0491
     13  C8       -50.5290  -28.5490    3.6830 C.ar  201  RSR201     -0.0257
     14  C7       -51.0870  -28.8260    4.9180 C.ar  201  RSR201      0.1254
     15  C6       -50.3210  -29.1220    6.0070 C.ar  201  RSR201     -0.0025
     16  C5       -48.9420  -29.1380    5.8410 C.ar  201  RSR201      0.0515
     17  C4       -48.3270  -28.8620    4.6000 C.ar  201  RSR201      0.0124
     18  C3       -46.8930  -28.9900    4.8170 C.ar  201  RSR201      0.0664
     19  C2       -46.7410  -29.3320    6.1950 C.ar  201  RSR201      0.1461
     20  C1       -44.4980  -29.4090    6.0290 C.ar  201  RSR201      0.2161
     21  O1       -47.1850  -26.3580   -0.0600 O.co2 201  RSR201     -0.5465
     22  F1       -52.4450  -28.7970    5.0450 F     201  RSR201     -0.2054
     23  F2       -45.5070  -29.3310   -0.1550 F     201  RSR201     -0.2333
     24  N2       -45.5740  -29.5450    6.8190 N.ar  201  RSR201     -0.1967
     25  N3       -47.9650  -29.4120    6.7760 N.ar  201  RSR201     -0.3388
     26  N4       -45.5160  -28.5590    2.7780 N.pl3 201  RSR201     -0.3105
     27  N5       -44.5110  -29.0940    4.7080 N.ar  201  RSR201     -0.1990
     28  H15      -42.5420  -27.9840    0.0710 H     201  RSR201      0.0272
     29  H16      -43.6790  -27.7660   -1.0570 H     201  RSR201      0.0272
     30  H2       -42.5760  -29.5670    6.0820 H     201  RSR201      0.1452
     31  H1       -43.2310  -29.8690    7.4190 H     201  RSR201      0.1452
     32  H12      -45.1720  -25.5180    0.8050 H     201  RSR201      0.0272
     33  H11      -44.0610  -25.7120    1.9590 H     201  RSR201      0.0272
     34  H13      -43.4790  -25.4380   -0.8090 H     201  RSR201      0.0266
     35  H14      -42.3570  -25.6610    0.3660 H     201  RSR201      0.0266
     36  H10      -47.0920  -29.2660    1.7200 H     201  RSR201      0.0499
     37  H9       -47.1640  -27.6920    1.9980 H     201  RSR201      0.0499
     38  H8       -43.6330  -27.7770    2.8250 H     201  RSR201      0.0471
     39  H7       -43.7260  -29.1620    2.0280 H     201  RSR201      0.0471
     40  H6       -48.7970  -28.3830    2.6820 H     201  RSR201      0.0625
     41  H5       -51.0740  -28.3460    2.9620 H     201  RSR201      0.0646
     42  H4       -50.7060  -29.3080    6.8450 H     201  RSR201      0.0667
     43  H3       -48.1200  -29.6130    7.5990 H     201  RSR201      0.1673
@<TRIPOS>UNITY_ATOM_ATTR
21 1
charge -1
@<TRIPOS>BOND
     1     8     5   ar
     2    29     1    1
     3    34     4    1
     4     5    21   ar
     5     5     7    1
     6     1     4    1
     7     1    28    1
     8     1     9    1
     9    23     7    1
    10     4    35    1
    11     4     3    1
    12     7     9    1
    13     7     6    1
    14    32     3    1
    15     9     3    1
    16     9    10    1
    17     3    33    1
    18    36     6    1
    19     6    37    1
    20     6    26    1
    21    39    10    1
    22    10    26    1
    23    10    38    1
    24    40    12    1
    25    26    11    1
    26    41    13    1
    27    12    13   ar
    28    12    17   ar
    29    13    14   ar
    30    11    27   ar
    31    11    18   ar
    32    17    18   ar
    33    17    16   ar
    34    27    20   ar
    35    18    19   ar
    36    14    22    1
    37    14    15   ar
    38    16    15   ar
    39    16    25   ar
    40    15    42    1
    41    20     2    1
    42    20    24   ar
    43    30     2    1
    44    19    25   ar
    45    19    24   ar
    46     2    31    1
    47    25    43    1
