RZS
  -OEChem-02242320043D

 20 20  0     0  0  0  0  0  0999 V2000
    1.3320    1.2320   -0.0010 C   0  0  0  0  0  0  0  0  0  0  0  0
   -4.5150   -0.1430    0.0010 C   0  0  0  0  0  0  0  0  0  0  0  0
   -3.0660   -0.6330   -0.0010 C   0  0  0  0  0  0  0  0  0  0  0  0
   -0.7890    0.3220   -0.0010 C   0  0  0  0  0  0  0  0  0  0  0  0
   -0.2810   -0.9750   -0.0050 C   0  0  0  0  0  0  0  0  0  0  0  0
    1.0750   -1.1670    0.0060 C   0  0  0  0  0  0  0  0  0  0  0  0
    1.9090   -0.0390    0.0020 C   0  0  0  0  0  0  0  0  0  0  0  0
    3.3330   -0.1890   -0.0000 C   0  0  0  0  0  0  0  0  0  0  0  0
   -2.1610    0.5190    0.0000 N   0  0  0  0  0  0  0  0  0  0  0  0
    4.4630   -0.3090   -0.0020 N   0  0  0  0  0  0  0  0  0  0  0  0
    0.0220    1.3710    0.0010 N   0  0  0  0  0  0  0  0  0  0  0  0
    1.9630    2.1080    0.0010 H   0  0  0  0  0  0  0  0  0  0  0  0
   -4.6940    0.4590    0.8930 H   0  0  0  0  0  0  0  0  0  0  0  0
   -4.6960    0.4630   -0.8870 H   0  0  0  0  0  0  0  0  0  0  0  0
   -5.1890   -0.9990    0.0000 H   0  0  0  0  0  0  0  0  0  0  0  0
   -2.8860   -1.2380    0.8870 H   0  0  0  0  0  0  0  0  0  0  0  0
   -2.8870   -1.2340   -0.8930 H   0  0  0  0  0  0  0  0  0  0  0  0
   -0.9510   -1.8230   -0.0060 H   0  0  0  0  0  0  0  0  0  0  0  0
    1.4920   -2.1630    0.0040 H   0  0  0  0  0  0  0  0  0  0  0  0
   -2.5210    1.4190    0.0030 H   0  0  0  0  0  0  0  0  0  0  0  0
  8 10  3  0  0  0  0
  7  8  1  0  0  0  0
  6  7  2  0  0  0  0
  1  7  1  0  0  0  0
  5  6  1  0  0  0  0
  1 11  2  0  0  0  0
  4  5  2  0  0  0  0
  4 11  1  0  0  0  0
  4  9  1  0  0  0  0
  3  9  1  0  0  0  0
  2  3  1  0  0  0  0
  1 12  1  0  0  0  0
  2 13  1  0  0  0  0
  2 14  1  0  0  0  0
  2 15  1  0  0  0  0
  3 16  1  0  0  0  0
  3 17  1  0  0  0  0
  5 18  1  0  0  0  0
  6 19  1  0  0  0  0
  9 20  1  0  0  0  0
M  END
> <OPENEYE_ISO_SMILES>
CCNc1ccc(cn1)C#N

> <OPENEYE_INCHI>
InChI=1S/C8H9N3/c1-2-10-8-4-3-7(5-9)6-11-8/h3-4,6H,2H2,1H3,(H,10,11)

> <OPENEYE_INCHIKEY>
MVJDUNKELBBNKM-UHFFFAOYSA-N

> <FORMULA>
C8H9N3

$$$$
