HGQ
  -OEChem-02242320023D

 12 12  0     0  0  0  0  0  0999 V2000
   -0.4400    1.4870    0.0030 C   0  0  0  0  0  0  0  0  0  0  0  0
   -1.7750    1.7050   -0.0000 C   0  0  0  0  0  0  0  0  0  0  0  0
   -2.6470    0.6640   -0.0020 N   0  0  0  0  0  0  0  0  0  0  0  0
    0.0560    0.1750    0.0030 C   0  0  0  0  0  0  0  0  0  0  0  0
   -3.0000   -1.5320   -0.0020 O   0  0  0  0  0  0  0  0  0  0  0  0
   -2.2030   -0.6080   -0.0010 C   0  0  0  0  0  0  0  0  0  0  0  0
   -0.8230   -0.8700    0.0070 C   0  0  0  0  0  0  0  0  0  0  0  0
    1.9200   -0.1440   -0.0010 Br  0  0  0  0  0  0  0  0  0  0  0  0
    0.2440    2.3230   -0.0000 H   0  0  0  0  0  0  0  0  0  0  0  0
   -2.1520    2.7170   -0.0010 H   0  0  0  0  0  0  0  0  0  0  0  0
   -3.6020    0.8370   -0.0040 H   0  0  0  0  0  0  0  0  0  0  0  0
   -0.4620   -1.8880    0.0080 H   0  0  0  0  0  0  0  0  0  0  0  0
  5  6  2  0  0  0  0
  3  6  1  0  0  0  0
  2  3  1  0  0  0  0
  6  7  1  0  0  0  0
  1  2  2  0  0  0  0
  4  7  2  0  0  0  0
  1  4  1  0  0  0  0
  4  8  1  0  0  0  0
  1  9  1  0  0  0  0
  2 10  1  0  0  0  0
  3 11  1  0  0  0  0
  7 12  1  0  0  0  0
M  END
> <OPENEYE_ISO_SMILES>
c1c[nH]c(=O)cc1Br

> <OPENEYE_INCHI>
InChI=1S/C5H4BrNO/c6-4-1-2-7-5(8)3-4/h1-3H,(H,7,8)

> <OPENEYE_INCHIKEY>
SSLMGOKTIUIZLY-UHFFFAOYSA-N

> <FORMULA>
C5H4BrNO

$$$$
