1FF
  -OEChem-02242320003D

 25 26  0     0  0  0  0  0  0999 V2000
   -2.7710   -2.2880   -0.2410 O   0  0  0  0  0  0  0  0  0  0  0  0
   -1.5940   -1.6350   -0.1680 C   0  0  0  0  0  0  0  0  0  0  0  0
   -0.5510   -2.2580   -0.2060 O   0  0  0  0  0  0  0  0  0  0  0  0
   -1.5720   -0.1710   -0.0420 C   0  0  0  0  0  0  0  0  0  0  0  0
   -2.6940    0.6840    0.0160 C   0  0  0  0  0  0  0  0  0  0  0  0
   -2.2680    1.9110    0.1280 N   0  0  0  0  0  0  0  0  0  0  0  0
   -0.8690    1.9140    0.1490 N   0  0  0  0  0  0  0  0  0  0  0  0
   -0.0160    3.0990    0.2670 C   0  0  0  0  0  0  0  0  0  0  0  0
   -0.4380    0.6370    0.0500 C   0  0  0  0  0  0  0  0  0  0  0  0
    0.9670    0.1830    0.0330 C   0  0  0  0  0  0  0  0  0  0  0  0
    1.3600   -0.9120    0.8050 C   0  0  0  0  0  0  0  0  0  0  0  0
    2.6740   -1.3310    0.7850 C   0  0  0  0  0  0  0  0  0  0  0  0
    3.6030   -0.6680    0.0020 C   0  0  0  0  0  0  0  0  0  0  0  0
    3.2200    0.4180   -0.7660 C   0  0  0  0  0  0  0  0  0  0  0  0
    1.9080    0.8430   -0.7600 C   0  0  0  0  0  0  0  0  0  0  0  0
   -2.7350   -3.2510   -0.3230 H   0  0  0  0  0  0  0  0  0  0  0  0
   -3.7280    0.3740   -0.0260 H   0  0  0  0  0  0  0  0  0  0  0  0
    0.2170    3.4800   -0.7280 H   0  0  0  0  0  0  0  0  0  0  0  0
   -0.5380    3.8680    0.8370 H   0  0  0  0  0  0  0  0  0  0  0  0
    0.9080    2.8320    0.7790 H   0  0  0  0  0  0  0  0  0  0  0  0
    0.6360   -1.4300    1.4170 H   0  0  0  0  0  0  0  0  0  0  0  0
    2.9790   -2.1770    1.3820 H   0  0  0  0  0  0  0  0  0  0  0  0
    4.6300   -1.0000   -0.0100 H   0  0  0  0  0  0  0  0  0  0  0  0
    3.9500    0.9310   -1.3740 H   0  0  0  0  0  0  0  0  0  0  0  0
    1.6110    1.6910   -1.3590 H   0  0  0  0  0  0  0  0  0  0  0  0
  7  8  1  0  0  0  0
 13 14  2  0  0  0  0
 14 15  1  0  0  0  0
 12 13  1  0  0  0  0
 10 15  2  0  0  0  0
 11 12  2  0  0  0  0
  7  9  1  0  0  0  0
  6  7  1  0  0  0  0
 10 11  1  0  0  0  0
  9 10  1  0  0  0  0
  4  9  2  0  0  0  0
  5  6  2  0  0  0  0
  4  5  1  0  0  0  0
  2  4  1  0  0  0  0
  2  3  2  0  0  0  0
  1  2  1  0  0  0  0
  1 16  1  0  0  0  0
  5 17  1  0  0  0  0
  8 18  1  0  0  0  0
  8 19  1  0  0  0  0
  8 20  1  0  0  0  0
 11 21  1  0  0  0  0
 12 22  1  0  0  0  0
 13 23  1  0  0  0  0
 14 24  1  0  0  0  0
 15 25  1  0  0  0  0
M  END
> <OPENEYE_ISO_SMILES>
Cn1c(c(cn1)C(=O)O)c2ccccc2

> <OPENEYE_INCHI>
InChI=1S/C11H10N2O2/c1-13-10(8-5-3-2-4-6-8)9(7-12-13)11(14)15/h2-7H,1H3,(H,14,15)

> <OPENEYE_INCHIKEY>
MXGOKNNGBUOAGF-UHFFFAOYSA-N

> <FORMULA>
C11H10N2O2

$$$$
