HBD
  -OEChem-02242320023D

 17 17  0     0  0  0  0  0  0999 V2000
   -0.0310   -0.0030    0.6560 C   0  0  0  0  0  0  0  0  0  0  0  0
   -1.2270   -0.0060   -0.0650 C   0  0  0  0  0  0  0  0  0  0  0  0
   -1.1990   -0.0140   -1.4420 C   0  0  0  0  0  0  0  0  0  0  0  0
    0.0170   -0.0190   -2.1130 C   0  0  0  0  0  0  0  0  0  0  0  0
    1.2100   -0.0160   -1.3990 C   0  0  0  0  0  0  0  0  0  0  0  0
    1.1890   -0.0030   -0.0220 C   0  0  0  0  0  0  0  0  0  0  0  0
   -0.0570    0.0040    2.1320 C   0  0  0  0  0  0  0  0  0  0  0  0
   -1.1210    0.0090    2.7210 O   0  0  0  0  0  0  0  0  0  0  0  0
    1.0970    0.0070    2.8260 N   0  0  0  0  0  0  0  0  0  0  0  0
    0.0420   -0.0260   -3.4700 O   0  0  0  0  0  0  0  0  0  0  0  0
   -2.1730   -0.0020    0.4550 H   0  0  0  0  0  0  0  0  0  0  0  0
   -2.1230   -0.0160   -2.0000 H   0  0  0  0  0  0  0  0  0  0  0  0
    2.1530   -0.0190   -1.9240 H   0  0  0  0  0  0  0  0  0  0  0  0
    2.1160   -0.0000    0.5320 H   0  0  0  0  0  0  0  0  0  0  0  0
    1.0800    0.0120    3.7960 H   0  0  0  0  0  0  0  0  0  0  0  0
    1.9450   -0.0000    2.3560 H   0  0  0  0  0  0  0  0  0  0  0  0
    0.0480    0.8970   -3.7550 H   0  0  0  0  0  0  0  0  0  0  0  0
  1  2  2  0  0  0  0
  1  6  1  0  0  0  0
  1  7  1  0  0  0  0
  2  3  1  0  0  0  0
  2 11  1  0  0  0  0
  3  4  2  0  0  0  0
  3 12  1  0  0  0  0
  4  5  1  0  0  0  0
  4 10  1  0  0  0  0
  5  6  2  0  0  0  0
  5 13  1  0  0  0  0
  6 14  1  0  0  0  0
  7  8  2  0  0  0  0
  7  9  1  0  0  0  0
  9 15  1  0  0  0  0
  9 16  1  0  0  0  0
 10 17  1  0  0  0  0
M  END
> <OPENEYE_ISO_SMILES>
c1cc(ccc1C(=O)N)O

> <OPENEYE_INCHI>
InChI=1S/C7H7NO2/c8-7(10)5-1-3-6(9)4-2-5/h1-4,9H,(H2,8,10)

> <OPENEYE_INCHIKEY>
QXSAKPUBHTZHKW-UHFFFAOYSA-N

> <FORMULA>
C7H7NO2

$$$$
