NZJ
  -OEChem-02242320033D

 36 37  0     0  0  0  0  0  0999 V2000
   -0.3930    1.0620   -0.4240 N   0  0  0  0  0  0  0  0  0  0  0  0
    3.3130   -0.8920   -1.6060 C   0  0  0  0  0  0  0  0  0  0  0  0
    2.2430   -0.0380   -1.4340 C   0  0  0  0  0  0  0  0  0  0  0  0
    1.9760    0.4970   -0.1730 C   0  0  0  0  0  0  0  0  0  0  0  0
    2.7960    0.1650    0.9070 C   0  0  0  0  0  0  0  0  0  0  0  0
    0.8310    1.4130    0.0180 C   0  0  0  0  0  0  0  0  0  0  0  0
   -1.6960   -1.0000   -0.4970 C   0  0  0  0  0  0  0  0  0  0  0  0
   -1.5560    1.9230   -0.1680 C   0  0  0  0  0  0  0  0  0  0  0  0
    4.7490   -1.0490    1.8860 C   0  0  0  0  0  0  0  0  0  0  0  0
   -2.9530   -0.1390   -0.3620 C   0  0  0  0  0  0  0  0  0  0  0  0
   -2.6500    1.0870    0.5030 C   0  0  0  0  0  0  0  0  0  0  0  0
   -4.0520   -0.9510    0.2730 C   0  0  0  0  0  0  0  0  0  0  0  0
    3.8630   -0.6890    0.7220 C   0  0  0  0  0  0  0  0  0  0  0  0
    4.1220   -1.2170   -0.5310 C   0  0  0  0  0  0  0  0  0  0  0  0
   -0.5890   -0.1860   -1.1740 C   0  0  0  0  0  0  0  0  0  0  0  0
   -5.2600   -0.3960    0.4930 N   0  0  0  0  0  0  0  0  0  0  0  0
    0.9940    2.4820    0.5720 O   0  0  0  0  0  0  0  0  0  0  0  0
   -3.8500   -2.1050    0.5860 O   0  0  0  0  0  0  0  0  0  0  0  0
    3.5170   -1.3110   -2.5800 H   0  0  0  0  0  0  0  0  0  0  0  0
    1.6130    0.2150   -2.2740 H   0  0  0  0  0  0  0  0  0  0  0  0
    2.5960    0.5770    1.8850 H   0  0  0  0  0  0  0  0  0  0  0  0
   -1.3670   -1.3080    0.4950 H   0  0  0  0  0  0  0  0  0  0  0  0
   -1.9180   -1.8820   -1.0980 H   0  0  0  0  0  0  0  0  0  0  0  0
   -1.2660    2.7420    0.4900 H   0  0  0  0  0  0  0  0  0  0  0  0
   -1.9280    2.3230   -1.1110 H   0  0  0  0  0  0  0  0  0  0  0  0
    4.3570   -1.9380    2.3800 H   0  0  0  0  0  0  0  0  0  0  0  0
    5.7590   -1.2480    1.5270 H   0  0  0  0  0  0  0  0  0  0  0  0
    4.7730   -0.2200    2.5940 H   0  0  0  0  0  0  0  0  0  0  0  0
   -3.2730    0.1950   -1.3490 H   0  0  0  0  0  0  0  0  0  0  0  0
   -2.3090    0.7620    1.4860 H   0  0  0  0  0  0  0  0  0  0  0  0
   -3.5530    1.6880    0.6110 H   0  0  0  0  0  0  0  0  0  0  0  0
    4.9580   -1.8860   -0.6700 H   0  0  0  0  0  0  0  0  0  0  0  0
   -0.8830    0.0510   -2.1970 H   0  0  0  0  0  0  0  0  0  0  0  0
    0.3360   -0.7630   -1.1820 H   0  0  0  0  0  0  0  0  0  0  0  0
   -5.4220    0.5270    0.2420 H   0  0  0  0  0  0  0  0  0  0  0  0
   -5.9680   -0.9180    0.9020 H   0  0  0  0  0  0  0  0  0  0  0  0
  2 14  2  0  0  0  0
  2  3  1  0  0  0  0
 13 14  1  0  0  0  0
  3  4  2  0  0  0  0
  9 13  1  0  0  0  0
  5 13  2  0  0  0  0
  4  5  1  0  0  0  0
  4  6  1  0  0  0  0
 12 18  2  0  0  0  0
  6 17  2  0  0  0  0
  1  6  1  0  0  0  0
  7 15  1  0  0  0  0
  7 10  1  0  0  0  0
  1 15  1  0  0  0  0
  1  8  1  0  0  0  0
 12 16  1  0  0  0  0
 10 12  1  0  0  0  0
  8 11  1  0  0  0  0
 10 11  1  0  0  0  0
  2 19  1  0  0  0  0
  3 20  1  0  0  0  0
  5 21  1  0  0  0  0
  7 22  1  0  0  0  0
  7 23  1  0  0  0  0
  8 24  1  0  0  0  0
  8 25  1  0  0  0  0
  9 26  1  0  0  0  0
  9 27  1  0  0  0  0
  9 28  1  0  0  0  0
 10 29  1  0  0  0  0
 11 30  1  0  0  0  0
 11 31  1  0  0  0  0
 14 32  1  0  0  0  0
 15 33  1  0  0  0  0
 15 34  1  0  0  0  0
 16 35  1  0  0  0  0
 16 36  1  0  0  0  0
M  END
> <OPENEYE_ISO_SMILES>
Cc1cccc(c1)C(=O)N2CCC(CC2)C(=O)N

> <OPENEYE_INCHI>
InChI=1S/C14H18N2O2/c1-10-3-2-4-12(9-10)14(18)16-7-5-11(6-8-16)13(15)17/h2-4,9,11H,5-8H2,1H3,(H2,15,17)

> <OPENEYE_INCHIKEY>
VSYPROQBASLXDK-UHFFFAOYSA-N

> <FORMULA>
C14H18N2O2

$$$$
