VWA
  -OEChem-02242320043D

 23 23  0     1  0  0  0  0  0999 V2000
    2.4710    0.7660   -0.3800 N   0  0  0  0  0  0  0  0  0  0  0  0
    0.3030   -0.2610    0.0100 C   0  0  0  0  0  0  0  0  0  0  0  0
   -0.5220   -1.2730   -0.4440 C   0  0  0  0  0  0  0  0  0  0  0  0
   -1.8900   -1.0850   -0.4820 C   0  0  0  0  0  0  0  0  0  0  0  0
   -2.4360    0.1170   -0.0640 C   0  0  0  0  0  0  0  0  0  0  0  0
   -1.6090    1.1300    0.3910 C   0  0  0  0  0  0  0  0  0  0  0  0
    3.8060    0.4730   -0.9190 C   0  0  0  0  0  0  0  0  0  0  0  0
    1.7950   -0.4660    0.0500 C   0  0  2  0  0  0  0  0  0  0  0  0
    2.2240   -0.8120    1.4770 C   0  0  0  0  0  0  0  0  0  0  0  0
   -3.7730    0.3020   -0.1010 F   0  0  0  0  0  0  0  0  0  0  0  0
   -0.2400    0.9420    0.4220 C   0  0  0  0  0  0  0  0  0  0  0  0
    2.5240    1.4310    0.3770 H   0  0  0  0  0  0  0  0  0  0  0  0
   -0.0960   -2.2100   -0.7700 H   0  0  0  0  0  0  0  0  0  0  0  0
   -2.5340   -1.8760   -0.8370 H   0  0  0  0  0  0  0  0  0  0  0  0
   -2.0330    2.0680    0.7160 H   0  0  0  0  0  0  0  0  0  0  0  0
    4.4110   -0.0080   -0.1500 H   0  0  0  0  0  0  0  0  0  0  0  0
    3.7130   -0.1920   -1.7770 H   0  0  0  0  0  0  0  0  0  0  0  0
    4.2840    1.4020   -1.2290 H   0  0  0  0  0  0  0  0  0  0  0  0
    2.0680   -1.2820   -0.6190 H   0  0  0  0  0  0  0  0  0  0  0  0
    1.7230   -1.7260    1.7960 H   0  0  0  0  0  0  0  0  0  0  0  0
    3.3040   -0.9610    1.5060 H   0  0  0  0  0  0  0  0  0  0  0  0
    1.9520    0.0040    2.1470 H   0  0  0  0  0  0  0  0  0  0  0  0
    0.4050    1.7320    0.7770 H   0  0  0  0  0  0  0  0  0  0  0  0
  5 10  1  0  0  0  0
  5  6  2  0  0  0  0
  6 11  1  0  0  0  0
  4  5  1  0  0  0  0
  2 11  2  0  0  0  0
  8  9  1  0  0  0  0
  1  7  1  0  0  0  0
  3  4  2  0  0  0  0
  2  3  1  0  0  0  0
  2  8  1  0  0  0  0
  1  8  1  0  0  0  0
  1 12  1  0  0  0  0
  3 13  1  0  0  0  0
  4 14  1  0  0  0  0
  6 15  1  0  0  0  0
  7 16  1  0  0  0  0
  7 17  1  0  0  0  0
  7 18  1  0  0  0  0
  8 19  1  0  0  0  0
  9 20  1  0  0  0  0
  9 21  1  0  0  0  0
  9 22  1  0  0  0  0
 11 23  1  0  0  0  0
M  END
> <OPENEYE_ISO_SMILES>
C[C@@H](c1ccc(cc1)F)NC

> <OPENEYE_INCHI>
InChI=1S/C9H12FN/c1-7(11-2)8-3-5-9(10)6-4-8/h3-7,11H,1-2H3/t7-/m0/s1

> <OPENEYE_INCHIKEY>
YORRIBKELCOOIJ-ZETCQYMHSA-N

> <FORMULA>
C9H12FN

$$$$
