@<TRIPOS>MOLECULE
/home/pku/3cl/gett_pdb/5RVP/5RVP_mol2/ligand/5RVP_1SQ.pdb
 19 20 0 0 0
SMALL
GASTEIGER

@<TRIPOS>ATOM
      1  N1         9.9770   21.4900   10.0020 N.pl3 201  1SQ201     -0.3427
      2  C2        10.4110   21.0930    8.6750 C.ar  201  1SQ201      0.1239
      3  N3         9.9770   19.9490    8.1690 N.ar  201  1SQ201     -0.2401
      4  C4        10.3380   19.5310    6.9610 C.ar  201  1SQ201      0.0303
      5  C5        11.1980   20.3070    6.1930 C.ar  201  1SQ201     -0.0357
      6  C6        11.6890   21.5470    6.7030 C.ar  201  1SQ201     -0.0132
      7  C7        12.5710   22.3660    5.9420 C.ar  201  1SQ201     -0.0539
      8  C8        13.0310   23.5690    6.4680 C.ar  201  1SQ201     -0.0612
      9  C9        12.6280   23.9740    7.7430 C.ar  201  1SQ201     -0.0611
     10  C10       11.7660   23.1760    8.4870 C.ar  201  1SQ201     -0.0508
     11  C11       11.2940   21.9430    7.9500 C.ar  201  1SQ201      0.0217
     12 HN11        9.2640   21.9610   10.0980 H     201  1SQ201      0.1437
     13 HN12       10.4330   21.2540   10.6920 H     201  1SQ201      0.1437
     14  H4        10.0180   18.7230    6.6310 H     201  1SQ201      0.0830
     15  H5        11.4540   20.0190    5.3470 H     201  1SQ201      0.0639
     16  H7        12.8390   22.0970    5.0930 H     201  1SQ201      0.0624
     17  H8        13.6020   24.0920    5.9580 H     201  1SQ201      0.0618
     18  H9        12.9060   24.7470    8.1120 H     201  1SQ201      0.0618
     19  H10       11.4980   23.4460    9.3360 H     201  1SQ201      0.0625
@<TRIPOS>BOND
     1    16     7    1
     2    15     5    1
     3     7     8   ar
     4     7     6   ar
     5    17     8    1
     6     5     6   ar
     7     5     4   ar
     8     8     9   ar
     9    14     4    1
    10     6    11   ar
    11     4     3   ar
    12     9    18    1
    13     9    10   ar
    14    11    10   ar
    15    11     2   ar
    16     3     2   ar
    17    10    19    1
    18     2     1    1
    19     1    12    1
    20     1    13    1
