@<TRIPOS>MOLECULE
/home/pku/3cl/gett_pdb/5TG2/5TG2_mol2/ligand/5TG2_V69.pdb
 31 31 0 0 0
SMALL
GASTEIGER

@<TRIPOS>ATOM
      1  C01       59.4130  -50.9490   24.2820 C.3   201  V69201      0.0000
      2  C02       60.1440  -52.1570   24.8600 C.3   201  V69201      0.0000
      3  C03       59.4050  -53.4520   24.5640 C.3   201  V69201      0.0001
      4  C04       59.8190  -54.0820   23.2550 C.3   201  V69201      0.0037
      5  C05       58.9900  -55.3330   22.9830 C.3   201  V69201      0.0437
      6  C06       58.9490  -55.6250   21.5060 C.3   201  V69201      0.1705
      7  C08       61.0130  -55.2910   20.3750 C.2   201  V69201      0.4214
      8  C24       57.9820  -56.7450   21.1650 C.3   201  V69201      0.0437
      9  C25       57.9360  -56.9780   19.6610 C.3   201  V69201      0.0038
     10  C26       57.1150  -55.8850   18.9850 C.3   201  V69201      0.0019
     11  C27       57.2330  -55.8980   17.4610 C.3   201  V69201      0.0234
     12  C28       56.8820  -54.5310   16.8880 C.3   201  V69201      0.1151
     13  N29       57.8850  -53.6150   17.3860 N.am  201  V69201     -0.2054
     14  O07       60.2220  -56.0880   21.1800 O.3   201  V69201     -0.4373
     15  O23       60.7110  -54.1820   20.0800 O.2   201  V69201     -0.2246
     16  N09       62.2350  -55.9180   19.9440 N.am  201  V69201     -0.1611
     17  C10       63.1220  -55.1890   19.0770 C.3   201  V69201      0.1761
     18  C15       62.4050  -54.8250   17.7880 C.2   201  V69201      0.2614
     19  O22       61.5170  -55.4960   17.3460 O.2   201  V69201     -0.2715
     20  C11       64.3540  -56.0430   18.8170 C.3   201  V69201      0.0312
     21  C12       65.2320  -56.2500   20.0480 C.3   201  V69201      0.0022
     22  C13       66.3810  -57.2030   19.7400 C.3   201  V69201      0.0001
     23  C14       65.7780  -54.9610   20.6370 C.3   201  V69201      0.0001
     24  N16       62.8500  -53.6300   17.0900 N.am  201  V69201     -0.2030
     25  C17       62.1720  -53.2510   15.8750 C.3   201  V69201      0.1287
     26  C18       61.2300  -52.0680   16.1350 C.3   201  V69201      0.0340
     27  C19       60.0720  -52.3630   17.0920 C.3   201  V69201      0.0887
     28  C30       59.0120  -53.3080   16.5380 C.2   201  V69201      0.2414
     29  O31       59.0750  -53.7900   15.4490 O.2   201  V69201     -0.2733
     30  C20       63.2020  -52.8380   14.8270 C.3   201  V69201      0.2036
     31  O21       63.9810  -53.9840   14.5290 O.3   201  V69201     -0.2185
@<TRIPOS>BOND
     1    31    30    1
     2    30    25    1
     3    29    28    2
     4    25    26    1
     5    25    24    1
     6    26    27    1
     7    28    27    1
     8    28    13   am
     9    12    13    1
    10    12    11    1
    11    24    18   am
    12    19    18    2
    13    11    10    1
    14    18    17    1
    15    20    17    1
    16    20    21    1
    17    10     9    1
    18    17    16    1
    19     9     8    1
    20    22    21    1
    21    16     7   am
    22    21    23    1
    23    15     7    2
    24     7    14    1
    25     8     6    1
    26    14     6    1
    27     6     5    1
    28     5     4    1
    29     4     3    1
    30     1     2    1
    31     3     2    1
