@<TRIPOS>MOLECULE
/home/pku/3cl/gett_pdb/8CZV/8CZV_mol2/ligand/8CZV_P8C.pdb
 34 36 0 0 0
SMALL
GASTEIGER

@<TRIPOS>ATOM
      1  C02      -21.7080   23.7780    2.4840 C.2   401  P8C401      0.4215
      2  C04      -21.1520   26.1030    1.8410 C.3   401  P8C401      0.1761
      3  C05      -21.4100   27.1510    0.7240 C.3   401  P8C401      0.0312
      4  C06      -20.8000   26.6960   -0.6340 C.3   401  P8C401      0.0022
      5  C07      -19.2690   26.5180   -0.5550 C.3   401  P8C401      0.0001
      6  C08      -21.1030   27.6670   -1.7790 C.3   401  P8C401      0.0001
      7  C09      -21.6730   26.6240    3.2250 C.2   401  P8C401      0.2614
      8  C11      -21.2060   27.7510    5.3960 C.3   401  P8C401      0.1287
      9  C12      -20.5290   26.8980    6.5280 C.3   401  P8C401      0.0335
     10  C13      -20.9720   25.4010    6.4890 C.3   401  P8C401      0.0818
     11  C14      -20.3370   24.5670    7.6350 C.2   401  P8C401      0.2410
     12  C16      -22.6820   24.0700    7.7050 C.3   401  P8C401      0.1156
     13  C17      -22.4990   25.2730    6.7520 C.3   401  P8C401      0.0326
     14  C19      -20.7640   29.2250    5.5210 C.3   401  P8C401      0.2036
     15  C23      -22.6490   21.7680    3.2920 C.3   401  P8C401      0.2100
     16  C24      -22.2110   20.3690    2.8880 C.3   401  P8C401      0.0439
     17  C25      -23.3120   19.3250    2.7020 C.3   401  P8C401      0.0037
     18  C26      -23.4200   18.3600    1.5380 C.3   401  P8C401      0.0005
     19  C27      -22.8310   16.9670    1.6130 C.3   401  P8C401      0.0056
     20  C28      -23.4930   16.0720    0.6040 C.3   401  P8C401      0.0666
     21  C29      -23.2210   16.6150   -0.8240 C.3   401  P8C401      0.2639
     22  C30      -23.5230   18.1480   -0.9650 C.3   401  P8C401      0.0666
     23  C31      -22.9270   18.9400    0.1980 C.3   401  P8C401      0.0056
     24  C34      -22.3780   19.2240    3.8620 C.3   401  P8C401      0.0038
     25  F32      -21.9470   16.3560   -1.1570 F     401  P8C401     -0.2043
     26  F33      -23.9290   15.8980   -1.7350 F     401  P8C401     -0.2043
     27  N03      -21.7850   24.8140    1.5660 N.am  401  P8C401     -0.1611
     28  N10      -20.8050   27.2550    4.0900 N.am  401  P8C401     -0.2030
     29  N15      -21.3510   23.8420    8.2790 N.am  401  P8C401     -0.2054
     30  O01      -20.9500   23.7760    3.4450 O.2   401  P8C401     -0.2246
     31  O18      -19.1710   24.5000    7.9500 O.2   401  P8C401     -0.2734
     32  O20      -21.4790   29.9410    4.5390 O.3   401  P8C401     -0.2185
     33  O21      -22.8350   26.4590    3.5640 O.2   401  P8C401     -0.2715
     34  O22      -22.5440   22.7190    2.2560 O.3   401  P8C401     -0.4335
@<TRIPOS>BOND
     1     6     4    1
     2    26    21    1
     3    25    21    1
     4    22    21    1
     5    22    23    1
     6    21    20    1
     7     4     5    1
     8     4     3    1
     9    23    18    1
    10    20    19    1
    11     3     2    1
    12    18    19    1
    13    18    17    1
    14    27     2    1
    15    27     1   am
    16     2     7    1
    17    34     1    1
    18    34    15    1
    19     1    30    2
    20    17    16    1
    21    17    24    1
    22    16    15    1
    23    16    24    1
    24     7    33    2
    25     7    28   am
    26    28     8    1
    27    32    14    1
    28     8    14    1
    29     8     9    1
    30    10     9    1
    31    10    13    1
    32    10    11    1
    33    13    12    1
    34    11    31    2
    35    11    29   am
    36    12    29    1
