S5J
  -OEChem-02242320043D

 34 35  0     0  0  0  0  0  0999 V2000
    2.6780    0.0510    0.4520 N   0  0  0  0  0  0  0  0  0  0  0  0
   -2.8890   -2.3100    0.0750 C   0  0  0  0  0  0  0  0  0  0  0  0
   -1.6170   -1.7740    0.1530 C   0  0  0  0  0  0  0  0  0  0  0  0
   -1.4360   -0.4030    0.0480 C   0  0  0  0  0  0  0  0  0  0  0  0
    0.4460   -0.0990    1.4480 C   0  0  0  0  0  0  0  0  0  0  0  0
    1.8160    0.5800    1.5190 C   0  0  0  0  0  0  0  0  0  0  0  0
    0.7120   -0.3860   -0.9410 C   0  0  0  0  0  0  0  0  0  0  0  0
   -0.1490    0.1420    0.1260 N   0  0  0  0  0  0  0  0  0  0  0  0
   -3.5410    2.5670   -0.4250 C   0  0  0  0  0  0  0  0  0  0  0  0
   -2.3660    1.7760   -0.2390 O   0  0  0  0  0  0  0  0  0  0  0  0
   -2.5380    0.4300   -0.1350 C   0  0  0  0  0  0  0  0  0  0  0  0
    4.0280    0.6230    0.5340 C   0  0  0  0  0  0  0  0  0  0  0  0
    4.9230   -0.0970   -0.3860 C   0  0  0  0  0  0  0  0  0  0  0  0
   -3.8090   -0.1150   -0.2120 C   0  0  0  0  0  0  0  0  0  0  0  0
   -3.9820   -1.4830   -0.1060 C   0  0  0  0  0  0  0  0  0  0  0  0
    2.0820    0.2920   -0.8700 C   0  0  0  0  0  0  0  0  0  0  0  0
    5.6130   -0.6540   -1.0960 N   0  0  0  0  0  0  0  0  0  0  0  0
   -3.0290   -3.3780    0.1520 H   0  0  0  0  0  0  0  0  0  0  0  0
   -0.7660   -2.4220    0.2950 H   0  0  0  0  0  0  0  0  0  0  0  0
    0.5630   -1.1710    1.6040 H   0  0  0  0  0  0  0  0  0  0  0  0
   -0.2040    0.3130    2.2200 H   0  0  0  0  0  0  0  0  0  0  0  0
    2.2720    0.3780    2.4880 H   0  0  0  0  0  0  0  0  0  0  0  0
    1.6960    1.6560    1.3900 H   0  0  0  0  0  0  0  0  0  0  0  0
    0.8320   -1.4620   -0.8120 H   0  0  0  0  0  0  0  0  0  0  0  0
    0.2570   -0.1850   -1.9100 H   0  0  0  0  0  0  0  0  0  0  0  0
   -3.2630    3.6190   -0.4920 H   0  0  0  0  0  0  0  0  0  0  0  0
   -4.0410    2.2640   -1.3450 H   0  0  0  0  0  0  0  0  0  0  0  0
   -4.2140    2.4220    0.4190 H   0  0  0  0  0  0  0  0  0  0  0  0
    3.9930    1.6770    0.2560 H   0  0  0  0  0  0  0  0  0  0  0  0
    4.4020    0.5280    1.5530 H   0  0  0  0  0  0  0  0  0  0  0  0
   -4.6640    0.5290   -0.3540 H   0  0  0  0  0  0  0  0  0  0  0  0
   -4.9740   -1.9060   -0.1670 H   0  0  0  0  0  0  0  0  0  0  0  0
    1.9660    1.3650   -1.0260 H   0  0  0  0  0  0  0  0  0  0  0  0
    2.7320   -0.1190   -1.6420 H   0  0  0  0  0  0  0  0  0  0  0  0
  2 15  2  0  0  0  0
  2  3  1  0  0  0  0
 14 15  1  0  0  0  0
  3  4  2  0  0  0  0
 11 14  2  0  0  0  0
  4 11  1  0  0  0  0
  4  8  1  0  0  0  0
 10 11  1  0  0  0  0
  7  8  1  0  0  0  0
  5  8  1  0  0  0  0
  7 16  1  0  0  0  0
  9 10  1  0  0  0  0
  5  6  1  0  0  0  0
  1 16  1  0  0  0  0
  1  6  1  0  0  0  0
  1 12  1  0  0  0  0
 12 13  1  0  0  0  0
 13 17  3  0  0  0  0
  2 18  1  0  0  0  0
  3 19  1  0  0  0  0
  5 20  1  0  0  0  0
  5 21  1  0  0  0  0
  6 22  1  0  0  0  0
  6 23  1  0  0  0  0
  7 24  1  0  0  0  0
  7 25  1  0  0  0  0
  9 26  1  0  0  0  0
  9 27  1  0  0  0  0
  9 28  1  0  0  0  0
 12 29  1  0  0  0  0
 12 30  1  0  0  0  0
 14 31  1  0  0  0  0
 15 32  1  0  0  0  0
 16 33  1  0  0  0  0
 16 34  1  0  0  0  0
M  END
> <OPENEYE_ISO_SMILES>
COc1ccccc1N2CCN(CC2)CC#N

> <OPENEYE_INCHI>
InChI=1S/C13H17N3O/c1-17-13-5-3-2-4-12(13)16-10-8-15(7-6-14)9-11-16/h2-5H,7-11H2,1H3

> <OPENEYE_INCHIKEY>
CMNAMTJQXKKSGP-UHFFFAOYSA-N

> <FORMULA>
C13H17N3O

$$$$
