K1G
  -OEChem-02242320033D

 30 31  0     1  0  0  0  0  0999 V2000
    0.6690   -1.4890    0.1740 N   0  0  0  0  0  0  0  0  0  0  0  0
   -2.9230    0.3640   -0.0160 N   0  0  0  0  0  0  0  0  0  0  0  0
    0.5740   -0.1650    0.2030 C   0  0  0  0  0  0  0  0  0  0  0  0
   -0.4060   -2.2510    0.0810 C   0  0  0  0  0  0  0  0  0  0  0  0
   -1.8220   -0.4380    0.0360 C   0  0  0  0  0  0  0  0  0  0  0  0
   -4.3120   -0.0900   -0.1200 C   0  0  0  0  0  0  0  0  0  0  0  0
   -1.1980    1.7390    0.1360 C   0  0  0  0  0  0  0  0  0  0  0  0
    1.7040    0.6240    0.2990 N   0  0  1  0  0  0  0  0  0  0  0  0
    3.1540   -0.8590   -1.0040 C   0  0  0  0  0  0  0  0  0  0  0  0
    2.9180   -0.2010    0.3570 C   0  0  0  0  0  0  0  0  0  0  0  0
    4.1170    0.6810    0.7120 C   0  0  0  0  0  0  0  0  0  0  0  0
    1.7730    1.5840   -0.8110 C   0  0  0  0  0  0  0  0  0  0  0  0
   -0.7070    0.4160    0.1330 C   0  0  0  0  0  0  0  0  0  0  0  0
   -1.6230   -1.7550    0.0130 N   0  0  0  0  0  0  0  0  0  0  0  0
   -2.4970    1.6970    0.0490 N   0  0  0  0  0  0  0  0  0  0  0  0
   -0.2820   -3.3230    0.0600 H   0  0  0  0  0  0  0  0  0  0  0  0
   -4.5880   -0.1750   -1.1710 H   0  0  0  0  0  0  0  0  0  0  0  0
   -4.4140   -1.0620    0.3620 H   0  0  0  0  0  0  0  0  0  0  0  0
   -4.9670    0.6300    0.3710 H   0  0  0  0  0  0  0  0  0  0  0  0
   -0.5990    2.6350    0.2000 H   0  0  0  0  0  0  0  0  0  0  0  0
    3.2750   -0.0870   -1.7640 H   0  0  0  0  0  0  0  0  0  0  0  0
    4.0550   -1.4710   -0.9610 H   0  0  0  0  0  0  0  0  0  0  0  0
    2.2990   -1.4870   -1.2560 H   0  0  0  0  0  0  0  0  0  0  0  0
    2.7970   -0.9730    1.1180 H   0  0  0  0  0  0  0  0  0  0  0  0
    4.2390    1.4520   -0.0490 H   0  0  0  0  0  0  0  0  0  0  0  0
    3.9500    1.1490    1.6810 H   0  0  0  0  0  0  0  0  0  0  0  0
    5.0180    0.0690    0.7550 H   0  0  0  0  0  0  0  0  0  0  0  0
    0.8940    2.2280   -0.7890 H   0  0  0  0  0  0  0  0  0  0  0  0
    2.6720    2.1920   -0.7110 H   0  0  0  0  0  0  0  0  0  0  0  0
    1.8030    1.0430   -1.7570 H   0  0  0  0  0  0  0  0  0  0  0  0
 10 11  1  0  0  0  0
  9 10  1  0  0  0  0
  8 10  1  0  0  0  0
  1  4  2  0  0  0  0
  1  3  1  0  0  0  0
  4 14  1  0  0  0  0
  5 14  2  0  0  0  0
  3  8  1  0  0  0  0
  8 12  1  0  0  0  0
  3 13  2  0  0  0  0
  5 13  1  0  0  0  0
  2  5  1  0  0  0  0
  7 13  1  0  0  0  0
  2  6  1  0  0  0  0
  2 15  1  0  0  0  0
  7 15  2  0  0  0  0
  4 16  1  0  0  0  0
  6 17  1  0  0  0  0
  6 18  1  0  0  0  0
  6 19  1  0  0  0  0
  7 20  1  0  0  0  0
  9 21  1  0  0  0  0
  9 22  1  0  0  0  0
  9 23  1  0  0  0  0
 10 24  1  0  0  0  0
 11 25  1  0  0  0  0
 11 26  1  0  0  0  0
 11 27  1  0  0  0  0
 12 28  1  0  0  0  0
 12 29  1  0  0  0  0
 12 30  1  0  0  0  0
M  END
> <OPENEYE_ISO_SMILES>
CC(C)[N@@](C)c1c2cnn(c2ncn1)C

> <OPENEYE_INCHI>
InChI=1S/C10H15N5/c1-7(2)14(3)9-8-5-13-15(4)10(8)12-6-11-9/h5-7H,1-4H3

> <OPENEYE_INCHIKEY>
ACQZDWVVKAKBAO-UHFFFAOYSA-N

> <FORMULA>
C10H15N5

$$$$
