@<TRIPOS>MOLECULE
/home/pku/3cl/gett_pdb/7KKL/7KKL_mol2/ligand/7KKL_NAG.pdb
 27 27 0 0 0
SMALL
GASTEIGER

@<TRIPOS>ATOM
      1  C1       180.2850  126.2570  133.5320 C.3     1  NAG1        0.1078
      2  C2       178.8410  126.9270  133.3880 C.3     1  NAG1        0.0802
      3  C3       177.7650  125.8300  133.7100 C.3     1  NAG1        0.1076
      4  C4       177.9260  124.6120  132.7220 C.3     1  NAG1        0.1493
      5  C5       179.3850  124.0380  132.8630 C.3     1  NAG1        0.1137
      6  C6       179.7010  122.8960  131.8830 C.3     1  NAG1        0.0730
      7  C7       178.8250  129.3460  133.9830 C.2     1  NAG1        0.2103
      8  C8       178.7120  130.4230  135.0220 C.3     1  NAG1        0.0122
      9  N2       178.7300  128.0570  134.3490 N.am    1  NAG1       -0.3075
     10  O3       176.4540  126.4150  133.5820 O.3     1  NAG1       -0.3871
     11  O4       177.0160  123.5400  133.1100 O.3     1  NAG1       -0.2256
     12  O5       180.3740  125.1200  132.5980 O.3     1  NAG1       -0.3638
     13  O6       180.6170  121.9570  132.4430 O.3     1  NAG1       -0.3924
     14  O7       179.0090  129.6730  132.7980 O.2     1  NAG1       -0.2761
     15  H1       180.4160  125.8690  134.5840 H       1  NAG1        0.0642
     16  H2       178.7160  127.2650  132.3430 H       1  NAG1        0.0551
     17  H3       177.8820  125.4920  134.7560 H       1  NAG1        0.0641
     18  H4       177.7530  124.9640  131.6880 H       1  NAG1        0.0682
     19  H5       179.5190  123.6510  133.8910 H       1  NAG1        0.0647
     20  H61      180.1520  123.3190  130.9730 H       1  NAG1        0.0584
     21  H62      178.7840  122.3540  131.6120 H       1  NAG1        0.0584
     22  H81      179.5420  130.3310  135.7390 H       1  NAG1        0.0322
     23  H82      177.7780  130.2990  135.5890 H       1  NAG1        0.0322
     24  H83      178.6850  131.4110  134.5400 H       1  NAG1        0.0322
     25  HN2      178.5850  127.8470  135.3050 H       1  NAG1        0.1491
     26  HO3      175.8100  125.7160  133.3170 H       1  NAG1        0.2100
     27  HO6      180.7670  121.2240  131.8080 H       1  NAG1        0.2095
@<TRIPOS>BOND
     1    20     6    1
     2    21     6    1
     3    18     4    1
     4    27    13    1
     5     6    13    1
     6     6     5    1
     7    16     2    1
     8    12     5    1
     9    12     1    1
    10     4     5    1
    11     4    11    1
    12     4     3    1
    13    14     7    2
    14     5    19    1
    15    26    10    1
    16     2     1    1
    17     2     3    1
    18     2     9    1
    19     1    15    1
    20    10     3    1
    21     3    17    1
    22     7     9   am
    23     7     8    1
    24     9    25    1
    25    24     8    1
    26     8    23    1
    27     8    22    1
