9OZ
  -OEChem-02242320013D

 60 64  0     1  0  0  0  0  0999 V2000
   -8.5920   -3.3250    0.7600 C   0  0  0  0  0  0  0  0  0  0  0  0
   -7.2540   -1.4300    0.2470 C   0  0  0  0  0  0  0  0  0  0  0  0
   -6.3380   -0.4440    0.5920 C   0  0  0  0  0  0  0  0  0  0  0  0
   -5.9360    0.4660   -0.3690 C   0  0  0  0  0  0  0  0  0  0  0  0
   -4.9430    1.5500   -0.0360 C   0  0  0  0  0  0  0  0  0  0  0  0
   -2.5270    1.8670   -0.0590 C   0  0  0  0  0  0  0  0  0  0  0  0
   -1.1300    1.3660   -0.3190 C   0  0  0  0  0  0  0  0  0  0  0  0
   -0.0360    2.4040   -0.0080 C   0  0  0  0  0  0  0  0  0  0  0  0
    0.7660    1.2500    0.5910 C   0  0  0  0  0  0  0  0  0  0  0  0
   -0.5550    0.5210    0.8330 C   0  0  0  0  0  0  0  0  0  0  0  0
    1.9080    0.5890   -0.1840 C   0  0  0  0  0  0  0  0  0  0  0  0
    3.9440    0.5710    1.1450 C   0  0  2  0  0  0  0  0  0  0  0  0
    4.7140    1.3370    2.2220 C   0  0  0  0  0  0  0  0  0  0  0  0
    4.8600    0.2780   -0.0150 C   0  0  0  0  0  0  0  0  0  0  0  0
    4.8940    1.1140   -1.0880 C   0  0  0  0  0  0  0  0  0  0  0  0
    5.7350    0.8600   -2.1700 C   0  0  0  0  0  0  0  0  0  0  0  0
    6.5460   -0.2330   -2.1850 C   0  0  0  0  0  0  0  0  0  0  0  0
    6.5390   -1.1190   -1.0950 C   0  0  0  0  0  0  0  0  0  0  0  0
    7.3630   -2.2580   -1.0740 C   0  0  0  0  0  0  0  0  0  0  0  0
    7.3280   -3.0950   -0.0020 C   0  0  0  0  0  0  0  0  0  0  0  0
    6.4880   -2.8400    1.0810 C   0  0  0  0  0  0  0  0  0  0  0  0
    5.6770   -1.7470    1.0960 C   0  0  0  0  0  0  0  0  0  0  0  0
    5.6880   -0.8580    0.0080 C   0  0  0  0  0  0  0  0  0  0  0  0
    1.7650    1.4820    1.7260 C   0  0  0  0  0  0  0  0  0  0  0  0
   -6.4670    0.3580   -1.6470 C   0  0  0  0  0  0  0  0  0  0  0  0
   -7.3730   -0.6460   -1.9190 C   0  0  0  0  0  0  0  0  0  0  0  0
   -3.5850    1.0630   -0.2880 N   0  0  0  0  0  0  0  0  0  0  0  0
    2.8110    1.3830    0.6810 N   0  0  0  0  0  0  0  0  0  0  0  0
   -7.7380   -1.5010   -0.9820 N   0  0  0  0  0  0  0  0  0  0  0  0
   -7.6530   -2.3330    1.1790 O   0  0  0  0  0  0  0  0  0  0  0  0
   -2.7010    2.9930    0.3560 O   0  0  0  0  0  0  0  0  0  0  0  0
   -8.1630   -3.9120   -0.0520 H   0  0  0  0  0  0  0  0  0  0  0  0
   -8.8250   -3.9810    1.5990 H   0  0  0  0  0  0  0  0  0  0  0  0
   -9.5040   -2.8390    0.4140 H   0  0  0  0  0  0  0  0  0  0  0  0
   -5.9450   -0.3900    1.5960 H   0  0  0  0  0  0  0  0  0  0  0  0
   -5.1370    2.4240   -0.6580 H   0  0  0  0  0  0  0  0  0  0  0  0
   -5.0420    1.8230    1.0150 H   0  0  0  0  0  0  0  0  0  0  0  0
   -1.0230    0.9000   -1.2980 H   0  0  0  0  0  0  0  0  0  0  0  0
    0.4200    2.8390   -0.8970 H   0  0  0  0  0  0  0  0  0  0  0  0
   -0.3390    3.1530    0.7240 H   0  0  0  0  0  0  0  0  0  0  0  0
   -1.0040    0.7390    1.8020 H   0  0  0  0  0  0  0  0  0  0  0  0
   -0.5130   -0.5460    0.6140 H   0  0  0  0  0  0  0  0  0  0  0  0
    1.9810   -0.4870   -0.0270 H   0  0  0  0  0  0  0  0  0  0  0  0
    1.9460    0.8710   -1.2370 H   0  0  0  0  0  0  0  0  0  0  0  0
    3.5730   -0.3660    1.5610 H   0  0  0  0  0  0  0  0  0  0  0  0
    5.0030    2.3150    1.8360 H   0  0  0  0  0  0  0  0  0  0  0  0
    4.0800    1.4660    3.0990 H   0  0  0  0  0  0  0  0  0  0  0  0
    5.6070    0.7770    2.4980 H   0  0  0  0  0  0  0  0  0  0  0  0
    4.2590    1.9880   -1.1020 H   0  0  0  0  0  0  0  0  0  0  0  0
    5.7420    1.5390   -3.0090 H   0  0  0  0  0  0  0  0  0  0  0  0
    7.1920   -0.4180   -3.0300 H   0  0  0  0  0  0  0  0  0  0  0  0
    8.0190   -2.4680   -1.9060 H   0  0  0  0  0  0  0  0  0  0  0  0
    7.9620   -3.9690    0.0110 H   0  0  0  0  0  0  0  0  0  0  0  0
    6.4800   -3.5200    1.9190 H   0  0  0  0  0  0  0  0  0  0  0  0
    5.0300   -1.5630    1.9410 H   0  0  0  0  0  0  0  0  0  0  0  0
    1.6910    2.4680    2.1830 H   0  0  0  0  0  0  0  0  0  0  0  0
    1.7960    0.6740    2.4570 H   0  0  0  0  0  0  0  0  0  0  0  0
   -6.1740    1.0540   -2.4200 H   0  0  0  0  0  0  0  0  0  0  0  0
   -7.7890   -0.7350   -2.9120 H   0  0  0  0  0  0  0  0  0  0  0  0
   -3.4470    0.1620   -0.6200 H   0  0  0  0  0  0  0  0  0  0  0  0
  1 30  1  0  0  0  0
  2 30  1  0  0  0  0
  2 29  2  0  0  0  0
  2  3  1  0  0  0  0
 26 29  1  0  0  0  0
  3  4  2  0  0  0  0
 25 26  2  0  0  0  0
  4 25  1  0  0  0  0
  4  5  1  0  0  0  0
  5 27  1  0  0  0  0
  6 31  2  0  0  0  0
  6 27  1  0  0  0  0
  6  7  1  0  0  0  0
  7  8  1  0  0  0  0
  7 10  1  0  0  0  0
  8  9  1  0  0  0  0
  9 10  1  0  0  0  0
  9 11  1  0  0  0  0
  9 24  1  0  0  0  0
 11 28  1  0  0  0  0
 24 28  1  0  0  0  0
 12 28  1  0  0  0  0
 12 14  1  0  0  0  0
 12 13  1  0  0  0  0
 14 15  2  0  0  0  0
 15 16  1  0  0  0  0
 14 23  1  0  0  0  0
 16 17  2  0  0  0  0
 22 23  1  0  0  0  0
 18 23  2  0  0  0  0
 17 18  1  0  0  0  0
 21 22  2  0  0  0  0
 18 19  1  0  0  0  0
 20 21  1  0  0  0  0
 19 20  2  0  0  0  0
  1 32  1  0  0  0  0
  1 33  1  0  0  0  0
  1 34  1  0  0  0  0
  3 35  1  0  0  0  0
  5 36  1  0  0  0  0
  5 37  1  0  0  0  0
  7 38  1  0  0  0  0
  8 39  1  0  0  0  0
  8 40  1  0  0  0  0
 10 41  1  0  0  0  0
 10 42  1  0  0  0  0
 11 43  1  0  0  0  0
 11 44  1  0  0  0  0
 12 45  1  0  0  0  0
 13 46  1  0  0  0  0
 13 47  1  0  0  0  0
 13 48  1  0  0  0  0
 15 49  1  0  0  0  0
 16 50  1  0  0  0  0
 17 51  1  0  0  0  0
 19 52  1  0  0  0  0
 20 53  1  0  0  0  0
 21 54  1  0  0  0  0
 22 55  1  0  0  0  0
 24 56  1  0  0  0  0
 24 57  1  0  0  0  0
 25 58  1  0  0  0  0
 26 59  1  0  0  0  0
 27 60  1  0  0  0  0
M  END
> <OPENEYE_ISO_SMILES>
C[C@H](c1cccc2c1cccc2)N3CC4(C3)CC(C4)C(=O)NCc5ccnc(c5)OC

> <OPENEYE_INCHI>
InChI=1S/C26H29N3O2/c1-18(22-9-5-7-20-6-3-4-8-23(20)22)29-16-26(17-29)13-21(14-26)25(30)28-15-19-10-11-27-24(12-19)31-2/h3-12,18,21H,13-17H2,1-2H3,(H,28,30)/t18-/m1/s1

> <OPENEYE_INCHIKEY>
RZDSJGBICFMVFS-GOSISDBHSA-N

> <FORMULA>
C26H29N3O2

$$$$
