@<TRIPOS>MOLECULE
/home/pku/3cl/gett_pdb/5RVG/5RVG_mol2/ligand/5RVG_W8J.pdb
 35 37 0 0 0
SMALL
GASTEIGER

@<TRIPOS>ATOM
      1  C10      -45.8640  -30.7070    1.5080 C.3   201  W8J201     -0.0367
      2  C13      -43.5310  -32.4820    1.9260 C.3   201  W8J201      0.0505
      3  C15      -41.5390  -31.4890    1.0890 C.3   201  W8J201      0.0480
      4  C17      -47.6670  -29.0450    3.3300 C.3   201  W8J201      0.2724
      5  C02      -47.8740  -28.8990    5.6490 C.2   201  W8J201      0.3349
      6  C03      -46.4980  -29.1130    5.7720 C.ar  201  W8J201      0.1951
      7  C05      -44.4390  -29.4160    6.3550 C.ar  201  W8J201      0.1192
      8  C07      -45.7750  -29.2870    4.6800 C.ar  201  W8J201      0.1599
      9  C09      -45.5070  -29.4260    2.2630 C.3   201  W8J201      0.0177
     10  C11      -44.8120  -30.9940    0.4060 C.3   201  W8J201     -0.0466
     11  C12      -43.8750  -32.2620    0.6340 C.3   201  W8J201     -0.0154
     12  C16      -42.5150  -32.1120   -0.0210 C.3   201  W8J201     -0.0245
     13  N01      -48.7330  -28.7010    6.7960 N.pl3 201  W8J201     -0.2451
     14  N04      -45.6670  -29.1890    6.8240 N.ar  201  W8J201     -0.2247
     15  N06      -44.4860  -29.4660    5.0270 N.ar  201  W8J201     -0.2182
     16  N08      -46.3550  -29.2430    3.4550 N.pl3 201  W8J201     -0.2667
     17  N18      -48.4080  -28.8660    4.4370 N.2   201  W8J201     -0.0513
     18  O14      -42.0600  -31.8370    2.1900 O.3   201  W8J201     -0.3795
     19 H101      -45.9570  -31.4490    2.1220 H     201  W8J201      0.0280
     20 H102      -46.7200  -30.5690    1.0740 H     201  W8J201      0.0280
     21 H132      -43.4780  -33.4400    2.0690 H     201  W8J201      0.0562
     22 H131      -44.1470  -32.1070    2.5640 H     201  W8J201      0.0562
     23 H151      -41.5180  -30.5220    1.0180 H     201  W8J201      0.0560
     24 H152      -40.6470  -31.8610    1.0030 H     201  W8J201      0.0560
     25 H171      -48.0610  -29.0150    2.4890 H     201  W8J201      0.1115
     26 H051      -43.6730  -29.5110    6.8730 H     201  W8J201      0.1048
     27 H092      -45.6280  -28.6670    1.6710 H     201  W8J201      0.0465
     28 H091      -44.5770  -29.4690    2.5330 H     201  W8J201      0.0465
     29 H112      -45.3110  -31.1650   -0.4010 H     201  W8J201      0.0269
     30 H111      -44.2610  -30.2060    0.2790 H     201  W8J201      0.0269
     31 H121      -44.3120  -33.0530    0.2820 H     201  W8J201      0.0324
     32 H161      -42.6170  -31.4480   -0.7180 H     201  W8J201      0.0291
     33 H162      -42.2180  -32.9100   -0.4380 H     201  W8J201      0.0291
     34 H012      -49.3650  -29.2610    6.9620 H     201  W8J201      0.2885
     35 H011      -48.6120  -28.0240    7.3120 H     201  W8J201      0.2885
@<TRIPOS>BOND
     1    32    12    1
     2    33    12    1
     3    29    10    1
     4    12    11    1
     5    12     3    1
     6    30    10    1
     7    31    11    1
     8    10    11    1
     9    10     1    1
    10    11     2    1
    11    24     3    1
    12    23     3    1
    13    20     1    1
    14     3    18    1
    15     1    19    1
    16     1     9    1
    17    27     9    1
    18     2    21    1
    19     2    18    1
    20     2    22    1
    21     9    28    1
    22     9    16    1
    23    25     4    1
    24     4    16    1
    25     4    17    1
    26    16     8    1
    27    17     5    2
    28     8    15   ar
    29     8     6   ar
    30    15     7   ar
    31     5     6    1
    32     5    13    1
    33     6    14   ar
    34     7    14   ar
    35     7    26    1
    36    13    34    1
    37    13    35    1
