6U6
  -OEChem-02242320013D

 23 24  0     0  0  0  0  0  0999 V2000
   -1.1400    1.1570   -0.0770 C   0  0  0  0  0  0  0  0  0  0  0  0
    3.2790   -0.3730   -0.5140 C   0  0  0  0  0  0  0  0  0  0  0  0
    1.1130    0.3120    0.4810 C   0  0  0  0  0  0  0  0  0  0  0  0
    2.5680    0.0500    0.7730 C   0  0  0  0  0  0  0  0  0  0  0  0
   -2.2530   -0.9610    0.2490 C   0  0  0  0  0  0  0  0  0  0  0  0
   -2.3640    1.7370   -0.4010 C   0  0  0  0  0  0  0  0  0  0  0  0
    5.5570   -1.0210   -1.2090 O   0  0  0  0  0  0  0  0  0  0  0  0
   -3.5110    0.9760   -0.3990 C   0  0  0  0  0  0  0  0  0  0  0  0
   -3.4510   -0.3730   -0.0730 C   0  0  0  0  0  0  0  0  0  0  0  0
   -1.0660   -0.1990    0.2590 C   0  0  0  0  0  0  0  0  0  0  0  0
   -4.9020   -1.3250   -0.0790 Cl  0  0  0  0  0  0  0  0  0  0  0  0
    0.1950   -0.5770    0.5430 N   0  0  0  0  0  0  0  0  0  0  0  0
    0.4850    1.8290    0.0160 S   0  0  0  0  0  0  0  0  0  0  0  0
    4.7330   -0.6350   -0.2220 C   0  0  0  0  0  0  0  0  0  0  0  0
    5.1580   -0.4980    0.9010 O   0  0  0  0  0  0  0  0  0  0  0  0
    2.8170   -1.2810   -0.9030 H   0  0  0  0  0  0  0  0  0  0  0  0
    3.1940    0.4230   -1.2540 H   0  0  0  0  0  0  0  0  0  0  0  0
    2.6520   -0.7460    1.5130 H   0  0  0  0  0  0  0  0  0  0  0  0
    3.0300    0.9580    1.1610 H   0  0  0  0  0  0  0  0  0  0  0  0
   -2.2200   -2.0100    0.5020 H   0  0  0  0  0  0  0  0  0  0  0  0
   -2.4140    2.7860   -0.6550 H   0  0  0  0  0  0  0  0  0  0  0  0
    6.4820   -1.1780   -0.9730 H   0  0  0  0  0  0  0  0  0  0  0  0
   -4.4590    1.4290   -0.6500 H   0  0  0  0  0  0  0  0  0  0  0  0
  9 11  1  0  0  0  0
  5  9  2  0  0  0  0
  5 10  1  0  0  0  0
  8  9  1  0  0  0  0
 10 12  1  0  0  0  0
  3 12  2  0  0  0  0
  1 10  2  0  0  0  0
 14 15  2  0  0  0  0
  2  4  1  0  0  0  0
  2 14  1  0  0  0  0
  6  8  2  0  0  0  0
  3  4  1  0  0  0  0
  3 13  1  0  0  0  0
  1  6  1  0  0  0  0
  1 13  1  0  0  0  0
  7 14  1  0  0  0  0
  2 16  1  0  0  0  0
  2 17  1  0  0  0  0
  4 18  1  0  0  0  0
  4 19  1  0  0  0  0
  5 20  1  0  0  0  0
  6 21  1  0  0  0  0
  7 22  1  0  0  0  0
  8 23  1  0  0  0  0
M  END
> <OPENEYE_ISO_SMILES>
c1cc2c(cc1Cl)nc(s2)CCC(=O)O

> <OPENEYE_INCHI>
InChI=1S/C10H8ClNO2S/c11-6-1-2-8-7(5-6)12-9(15-8)3-4-10(13)14/h1-2,5H,3-4H2,(H,13,14)

> <OPENEYE_INCHIKEY>
UMBLVHSXXWQLDL-UHFFFAOYSA-N

> <FORMULA>
C10H8ClNO2S

$$$$
