@<TRIPOS>MOLECULE
/home/pku/3cl/gett_pdb/6WCO/6WCO_mol2/ligand/6WCO_MES.pdb
 25 25 0 0 0
SMALL
GASTEIGER

@<TRIPOS>ATOM
      1  O1        13.1610  -27.8710    4.3850 O.3   401  MES401     -0.3834
      2  C2        13.8500  -26.6260    4.4060 C.3   401  MES401      0.0329
      3  C3        12.9870  -25.5560    5.0660 C.3   401  MES401     -0.0664
      4  N4        11.6080  -25.5580    4.5640 N.4   401  MES401      0.3837
      5  C5        10.9590  -26.8540    4.6080 C.3   401  MES401     -0.0664
      6  C6        11.8760  -27.7520    3.7800 C.3   401  MES401      0.0329
      7  C7        10.8950  -24.4290    5.1680 C.3   401  MES401     -0.0701
      8  C8         9.8140  -23.9000    4.2270 C.3   401  MES401      0.0581
      9  S          8.7820  -22.8720    5.0640 S.3   401  MES401      0.0101
     10  O1S        9.5780  -21.7550    5.6120 O.3   401  MES401     -0.0702
     11  O2S        7.7560  -22.3520    4.1220 O.3   401  MES401     -0.0702
     12  O3S        8.1300  -23.6310    6.1410 O.3   401  MES401     -0.0702
     13  H21       14.0930  -26.3240    3.3850 H     401  MES401      0.0541
     14  H22       14.7870  -26.7340    4.9560 H     401  MES401      0.0541
     15  H31       12.9740  -25.7240    6.1450 H     401  MES401      0.0081
     16  H32       13.4320  -24.5760    4.8850 H     401  MES401      0.0081
     17  HN4       11.6000  -25.4030    3.5670 H     401  MES401     -0.0816
     18  H51        9.9560  -26.8100    4.1790 H     401  MES401      0.0081
     19  H52       10.8690  -27.2180    5.6340 H     401  MES401      0.0081
     20  H61       11.4270  -28.7430    3.6850 H     401  MES401      0.0541
     21  H62       11.9840  -27.3350    2.7770 H     401  MES401      0.0541
     22  H71       10.4370  -24.7470    6.1070 H     401  MES401      0.0075
     23  H72       11.6040  -23.6290    5.3940 H     401  MES401      0.0075
     24  H81       10.2770  -23.3620    3.3970 H     401  MES401      0.0486
     25  H82        9.2460  -24.7350    3.8100 H     401  MES401      0.0486
@<TRIPOS>BOND
     1    21     6    1
     2    13     2    1
     3    24     8    1
     4    17     4    1
     5    20     6    1
     6     6     1    1
     7     6     5    1
     8    25     8    1
     9    11     9    1
    10    18     5    1
    11     8     9    1
    12     8     7    1
    13     1     2    1
    14     2    14    1
    15     2     3    1
    16     4     5    1
    17     4     3    1
    18     4     7    1
    19     5    19    1
    20    16     3    1
    21     9    10    1
    22     9    12    1
    23     3    15    1
    24     7    23    1
    25     7    22    1
