@<TRIPOS>MOLECULE
/home/pku/3cl/gett_pdb/5RV5/5RV5_mol2/ligand/5RV5_JG8.pdb
 40 45 0 0 0
SMALL
GASTEIGER

@<TRIPOS>ATOM
      1  O1       -43.4300  -30.0990    4.2520 O.3   201  JG8201     -0.1538
      2  O1       -43.6010  -31.4870    3.2930 O.2   201  JG8201     -0.4200
      3  C9       -44.2660  -29.9560    3.3680 C.3   201  JG8201      0.3810
      4  C9       -43.3190  -31.6340    2.1520 C.2   201  JG8201      0.2353
      5  N1       -43.8620  -30.1040    2.0230 N.pl3 201  JG8201     -0.2658
      6  N1       -42.1770  -31.0280    1.6030 N.pl3 201  JG8201     -0.2734
      7  C8       -44.7440  -29.9060    0.9220 C.2   201  JG8201      0.0870
      8  C8       -41.8220  -31.1900    0.2500 C.2   201  JG8201      0.0885
      9  N        -46.0960  -29.5790    1.1650 N.2   201  JG8201     -0.2361
     10  N        -42.6110  -32.0510   -0.6290 N.2   201  JG8201     -0.2360
     11  C1       -46.5440  -29.4550    2.5680 C.ar  201  JG8201      0.1223
     12  C1       -43.7960  -32.7130   -0.0490 C.ar  201  JG8201      0.1197
     13  C        -45.7060  -29.6140    3.6450 C.ar  201  JG8201      0.2257
     14  C        -44.1290  -32.5570    1.2850 C.ar  201  JG8201      0.2111
     15  O        -46.3930  -29.4550    4.7720 O.2   201  JG8201     -0.4489
     16  O        -45.2400  -33.2650    1.5520 O.2   201  JG8201     -0.4484
     17  C7       -47.6970  -29.1230    4.4530 C.ar  201  JG8201      0.1377
     18  C7       -45.6310  -33.9250    0.4430 C.ar  201  JG8201      0.1347
     19  C2       -47.8650  -29.1410    3.0780 C.ar  201  JG8201      0.0462
     20  C2       -44.7880  -33.6460   -0.6120 C.ar  201  JG8201      0.0317
     21  C6       -48.7660  -28.8500    5.3170 C.ar  201  JG8201     -0.0187
     22  C6       -46.7370  -34.7920    0.2730 C.2   201  JG8201     -0.0192
     23  C5       -50.0220  -28.6070    4.7680 C.ar  201  JG8201     -0.0582
     24  C5       -46.9520  -35.3530   -0.9620 C.2   201  JG8201     -0.0616
     25  C4       -50.1770  -28.6060    3.3720 C.ar  201  JG8201     -0.0609
     26  C4       -46.0820  -35.0880   -2.0170 C.2   201  JG8201     -0.0754
     27  C3       -49.1400  -28.8890    2.5050 C.ar  201  JG8201     -0.0489
     28  C3       -45.0050  -34.2350   -1.8470 C.3   201  JG8201      0.0185
     29  H1       -43.0350  -30.2750    1.8600 H     201  JG8201      0.1535
     30  H1       -41.7080  -30.5020    2.0960 H     201  JG8201      0.1559
     31  H8       -44.4360  -30.0100    0.0510 H     201  JG8201      0.0999
     32  H8       -41.0630  -30.7780   -0.0220 H     201  JG8201      0.1001
     33  H6       -48.6470  -28.8700    6.2390 H     201  JG8201      0.0654
     34  H6       -47.3140  -34.9680    0.9810 H     201  JG8201      0.0654
     35  H3       -49.2610  -28.8680    1.5830 H     201  JG8201      0.0625
     36  H3       -44.4350  -34.0530   -2.5590 H     201  JG8201      0.0402
     37  H5       -50.7470  -28.4200    5.3200 H     201  JG8201      0.0619
     38  H5       -47.6740  -35.9250   -1.0910 H     201  JG8201      0.0616
     39  H4       -51.0180  -28.4270    3.0170 H     201  JG8201      0.0618
     40  H4       -46.2400  -35.4690   -2.8510 H     201  JG8201      0.0578
@<TRIPOS>BOND
     1    40    26    1
     2    36    28    1
     3    26    28    1
     4    26    24    2
     5    28    20    1
     6    38    24    1
     7    24    22    1
     8    10    12    1
     9    10     8    2
    10    20    12   ar
    11    20    18   ar
    12    12    14   ar
    13    32     8    1
    14    31     7    1
    15     8     6    1
    16    22    18    2
    17    22    34    1
    18    18    16   ar
    19     7     9    2
    20     7     5    1
    21     9    11    1
    22    14    16   ar
    23    14     4    2
    24    35    27    1
    25     6    30    1
    26     6     4    1
    27    29     5    1
    28     5     3    1
    29     4     2    1
    30    27    19   ar
    31    27    25   ar
    32    11    19   ar
    33    11    13   ar
    34    39    25    1
    35    19    17   ar
    36     2     3    1
    37     3    13    1
    38     3     1    1
    39    25    23   ar
    40    13    15   ar
    41    17    15   ar
    42    17    21   ar
    43    23    21   ar
    44    23    37    1
    45    21    33    1
