@<TRIPOS>MOLECULE
/home/pku/3cl/gett_pdb/7TIZ/7TIZ_mol2/ligand/7TIZ_N63.pdb
 33 34 0 0 0
SMALL
GASTEIGER

@<TRIPOS>ATOM
      1  C1       -12.3040   12.4450   64.0170 C.2   401  N63401      0.2410
      2  C10      -11.8990   15.1560   70.7810 C.3   401  N63401      0.0312
      3  C11      -12.4200   14.6790   72.1630 C.3   401  N63401      0.0022
      4  C12      -13.9130   14.4110   72.1250 C.3   401  N63401      0.0001
      5  C13      -12.1230   15.8330   73.1930 C.3   401  N63401      0.0001
      6  C14      -11.4150   11.7330   69.2850 C.2   401  N63401      0.4218
      7  C15      -10.7000    9.5480   68.8700 C.3   401  N63401      0.2368
      8  C16       -9.6330    9.5320   67.7270 C.ar  401  N63401      0.0213
      9  C17       -8.7530   10.5980   67.5740 C.ar  401  N63401      0.0032
     10  C18       -7.8120   10.5730   66.5530 C.ar  401  N63401      0.0712
     11  C19       -6.8460   11.7420   66.3780 C.3   401  N63401      0.4186
     12  C2       -10.0320   11.9500   63.9960 C.3   401  N63401      0.1156
     13  C20       -7.7520    9.4870   65.6840 C.ar  401  N63401      0.0038
     14  C21       -8.6320    8.4210   65.8370 C.ar  401  N63401     -0.0003
     15  C22       -9.5740    8.4460   66.8580 C.ar  401  N63401     -0.0007
     16  C3       -10.2050   13.2500   64.8580 C.3   401  N63401      0.0326
     17  C4       -11.6930   13.2810   65.0770 C.3   401  N63401      0.0818
     18  C5       -12.2100   14.7760   65.0500 C.3   401  N63401      0.0335
     19  C6       -11.5980   15.5640   66.2080 C.3   401  N63401      0.1287
     20  C7       -11.9170   17.0480   66.1000 C.3   401  N63401      0.2036
     21  C8       -11.3980   14.5460   68.4110 C.2   401  N63401      0.2614
     22  C9       -12.0600   14.0670   69.6780 C.3   401  N63401      0.1761
     23  F1        -5.5690   11.3140   66.6050 F     401  N63401     -0.1659
     24  F2        -6.9510   12.2230   65.1050 F     401  N63401     -0.1659
     25  F3        -7.1550   12.7390   67.2550 F     401  N63401     -0.1659
     26  N1       -11.3600   11.7000   63.4330 N.am  401  N63401     -0.2054
     27  N2       -12.1670   15.0710   67.4690 N.am  401  N63401     -0.2030
     28  N3       -11.4610   12.7980   70.0840 N.am  401  N63401     -0.1611
     29  O1       -13.4730   12.4060   63.7180 O.2   401  N63401     -0.2734
     30  O2       -11.3570   17.6210   64.9280 O.3   401  N63401     -0.2185
     31  O3       -10.6140   10.7460   69.6330 O.3   401  N63401     -0.4285
     32  O4       -12.0830   11.6550   68.2700 O.2   401  N63401     -0.2245
     33  O5       -10.2200   14.4410   68.2650 O.2   401  N63401     -0.2715
@<TRIPOS>BOND
     1    26    12    1
     2    26     1   am
     3    29     1    2
     4    12    16    1
     5     1    17    1
     6    16    17    1
     7    30    20    1
     8    18    17    1
     9    18    19    1
    10    24    11    1
    11    13    14   ar
    12    13    10   ar
    13    14    15   ar
    14    20    19    1
    15    19    27    1
    16    11    10    1
    17    11    23    1
    18    11    25    1
    19    10     9   ar
    20    15     8   ar
    21    27    21   am
    22     9     8   ar
    23     8     7    1
    24    33    21    2
    25    32     6    2
    26    21    22    1
    27     7    31    1
    28     6    31    1
    29     6    28   am
    30    22    28    1
    31    22     2    1
    32     2     3    1
    33     4     3    1
    34     3     5    1
