RVO
  -OEChem-02242320043D

 34 36  0     1  0  0  0  0  0999 V2000
   -4.8650    0.1830    1.2650 C   0  0  0  0  0  0  0  0  0  0  0  0
   -0.2140    0.9080    0.4480 C   0  0  0  0  0  0  0  0  0  0  0  0
   -6.1480    0.1090    0.7630 C   0  0  0  0  0  0  0  0  0  0  0  0
   -5.3660   -0.0860   -1.3990 C   0  0  0  0  0  0  0  0  0  0  0  0
   -4.0550   -0.0070   -0.9760 C   0  0  0  0  0  0  0  0  0  0  0  0
   -3.7880    0.1240    0.3840 C   0  0  0  0  0  0  0  0  0  0  0  0
    3.3560    2.3750   -0.2160 C   0  0  0  0  0  0  0  0  0  0  0  0
    4.4600    0.3540   -0.1380 C   0  0  0  0  0  0  0  0  0  0  0  0
    3.2490   -0.2880    0.1040 C   0  0  0  0  0  0  0  0  0  0  0  0
    2.0940    0.4870    0.1750 C   0  0  0  0  0  0  0  0  0  0  0  0
    0.5020   -1.0420   -0.6800 C   0  0  0  0  0  0  0  0  0  0  0  0
   -1.0350   -1.1800   -0.5370 C   0  0  0  0  0  0  0  0  0  0  0  0
   -1.4740    0.2480   -0.1420 C   0  0  1  0  0  0  0  0  0  0  0  0
    5.6380   -0.3740   -0.2200 N   0  0  0  0  0  0  0  0  0  0  0  0
    0.8630   -0.1050    0.4140 N   0  0  2  0  0  0  0  0  0  0  0  0
   -6.3600   -0.0220   -0.5330 N   0  0  0  0  0  0  0  0  0  0  0  0
    2.1900    1.8050    0.0120 N   0  0  0  0  0  0  0  0  0  0  0  0
    4.4700    1.6770   -0.2910 N   0  0  0  0  0  0  0  0  0  0  0  0
   -2.5120    0.1940    0.8400 O   0  0  0  0  0  0  0  0  0  0  0  0
    3.1790   -2.0100    0.3100 Cl  0  0  0  0  0  0  0  0  0  0  0  0
   -4.6990    0.2890    2.3270 H   0  0  0  0  0  0  0  0  0  0  0  0
    0.0690    1.7720   -0.1540 H   0  0  0  0  0  0  0  0  0  0  0  0
   -0.4030    1.2150    1.4770 H   0  0  0  0  0  0  0  0  0  0  0  0
   -6.9890    0.1580    1.4380 H   0  0  0  0  0  0  0  0  0  0  0  0
   -5.5810   -0.1930   -2.4520 H   0  0  0  0  0  0  0  0  0  0  0  0
   -3.2460   -0.0610   -1.6900 H   0  0  0  0  0  0  0  0  0  0  0  0
    3.3990    3.4460   -0.3490 H   0  0  0  0  0  0  0  0  0  0  0  0
    0.9900   -2.0070   -0.5370 H   0  0  0  0  0  0  0  0  0  0  0  0
    0.7620   -0.6220   -1.6520 H   0  0  0  0  0  0  0  0  0  0  0  0
   -1.4850   -1.4750   -1.4850 H   0  0  0  0  0  0  0  0  0  0  0  0
   -1.2860   -1.8950    0.2470 H   0  0  0  0  0  0  0  0  0  0  0  0
   -1.8140    0.7980   -1.0200 H   0  0  0  0  0  0  0  0  0  0  0  0
    5.6220   -1.3370   -0.1080 H   0  0  0  0  0  0  0  0  0  0  0  0
    6.4780    0.0810   -0.3880 H   0  0  0  0  0  0  0  0  0  0  0  0
  7 18  2  0  0  0  0
  7 17  1  0  0  0  0
  8 18  1  0  0  0  0
 10 17  2  0  0  0  0
  8 14  1  0  0  0  0
  8  9  2  0  0  0  0
  9 10  1  0  0  0  0
 10 15  1  0  0  0  0
  9 20  1  0  0  0  0
  2 15  1  0  0  0  0
  2 13  1  0  0  0  0
 11 15  1  0  0  0  0
 13 19  1  0  0  0  0
 12 13  1  0  0  0  0
 11 12  1  0  0  0  0
  6 19  1  0  0  0  0
  1  6  2  0  0  0  0
  5  6  1  0  0  0  0
  1  3  1  0  0  0  0
  4  5  2  0  0  0  0
  3 16  2  0  0  0  0
  4 16  1  0  0  0  0
  1 21  1  0  0  0  0
  2 22  1  0  0  0  0
  2 23  1  0  0  0  0
  3 24  1  0  0  0  0
  4 25  1  0  0  0  0
  5 26  1  0  0  0  0
  7 27  1  0  0  0  0
 11 28  1  0  0  0  0
 11 29  1  0  0  0  0
 12 30  1  0  0  0  0
 12 31  1  0  0  0  0
 13 32  1  0  0  0  0
 14 33  1  0  0  0  0
 14 34  1  0  0  0  0
M  END
> <OPENEYE_ISO_SMILES>
c1cnccc1O[C@@H]2CC[N@](C2)c3c(c(ncn3)N)Cl

> <OPENEYE_INCHI>
InChI=1S/C13H14ClN5O/c14-11-12(15)17-8-18-13(11)19-6-3-10(7-19)20-9-1-4-16-5-2-9/h1-2,4-5,8,10H,3,6-7H2,(H2,15,17,18)/t10-/m1/s1

> <OPENEYE_INCHIKEY>
SILGAHKEYSAGRL-SNVBAGLBSA-N

> <FORMULA>
C13H14ClN5O

$$$$
