LWA
  -OEChem-02242320033D

 31 32  0     1  0  0  0  0  0999 V2000
    0.8670    0.6100    0.7660 N   0  0  0  0  0  0  0  0  0  0  0  0
   -2.3440   -1.0770    0.2040 C   0  0  0  0  0  0  0  0  0  0  0  0
   -3.1830    0.0200   -0.0090 C   0  0  0  0  0  0  0  0  0  0  0  0
   -4.6180   -0.1890   -0.2830 C   0  0  0  0  0  0  0  0  0  0  0  0
    1.7770   -0.2680    0.2980 C   0  0  0  0  0  0  0  0  0  0  0  0
    3.2480   -0.0040    0.4930 C   0  0  2  0  0  0  0  0  0  0  0  0
    5.0980    0.8730   -0.8260 C   0  0  0  0  0  0  0  0  0  0  0  0
   -5.4260    0.8700   -0.4880 N   0  0  0  0  0  0  0  0  0  0  0  0
   -2.6600    1.3150    0.0390 C   0  0  0  0  0  0  0  0  0  0  0  0
   -5.0710   -1.3170   -0.3230 O   0  0  0  0  0  0  0  0  0  0  0  0
   -1.3210    1.5070    0.2950 C   0  0  0  0  0  0  0  0  0  0  0  0
    5.3480   -0.5440   -0.2590 C   0  0  0  0  0  0  0  0  0  0  0  0
   -0.4890    0.4120    0.5070 C   0  0  0  0  0  0  0  0  0  0  0  0
   -1.0060   -0.8790    0.4600 C   0  0  0  0  0  0  0  0  0  0  0  0
    3.6850    1.2360   -0.3190 C   0  0  0  0  0  0  0  0  0  0  0  0
    1.4130   -1.2690   -0.2800 O   0  0  0  0  0  0  0  0  0  0  0  0
    4.0300   -1.0930   -0.0430 O   0  0  0  0  0  0  0  0  0  0  0  0
    1.1550    1.3760    1.2860 H   0  0  0  0  0  0  0  0  0  0  0  0
   -2.7450   -2.0790    0.1730 H   0  0  0  0  0  0  0  0  0  0  0  0
    3.4700    0.1380    1.5510 H   0  0  0  0  0  0  0  0  0  0  0  0
    5.8350    1.5760   -0.4380 H   0  0  0  0  0  0  0  0  0  0  0  0
    5.1210    0.8610   -1.9160 H   0  0  0  0  0  0  0  0  0  0  0  0
   -5.0650    1.7690   -0.4550 H   0  0  0  0  0  0  0  0  0  0  0  0
   -6.3690    0.7320   -0.6680 H   0  0  0  0  0  0  0  0  0  0  0  0
   -3.3060    2.1650   -0.1260 H   0  0  0  0  0  0  0  0  0  0  0  0
   -0.9170    2.5070    0.3320 H   0  0  0  0  0  0  0  0  0  0  0  0
    5.8980   -1.1500   -0.9800 H   0  0  0  0  0  0  0  0  0  0  0  0
    5.8940   -0.4860    0.6820 H   0  0  0  0  0  0  0  0  0  0  0  0
   -0.3570   -1.7260    0.6290 H   0  0  0  0  0  0  0  0  0  0  0  0
    3.0080    1.4010   -1.1570 H   0  0  0  0  0  0  0  0  0  0  0  0
    3.7230    2.1180    0.3210 H   0  0  0  0  0  0  0  0  0  0  0  0
  4 10  2  0  0  0  0
  4  8  1  0  0  0  0
  3  4  1  0  0  0  0
  3  9  2  0  0  0  0
  9 11  1  0  0  0  0
  2  3  1  0  0  0  0
 11 13  2  0  0  0  0
  2 14  2  0  0  0  0
 13 14  1  0  0  0  0
  1 13  1  0  0  0  0
  1  5  1  0  0  0  0
  7 12  1  0  0  0  0
 12 17  1  0  0  0  0
  7 15  1  0  0  0  0
  6 17  1  0  0  0  0
  5  6  1  0  0  0  0
  5 16  2  0  0  0  0
  6 15  1  0  0  0  0
  1 18  1  0  0  0  0
  2 19  1  0  0  0  0
  6 20  1  0  0  0  0
  7 21  1  0  0  0  0
  7 22  1  0  0  0  0
  8 23  1  0  0  0  0
  8 24  1  0  0  0  0
  9 25  1  0  0  0  0
 11 26  1  0  0  0  0
 12 27  1  0  0  0  0
 12 28  1  0  0  0  0
 14 29  1  0  0  0  0
 15 30  1  0  0  0  0
 15 31  1  0  0  0  0
M  END
> <OPENEYE_ISO_SMILES>
c1cc(ccc1C(=O)N)NC(=O)[C@@H]2CCCO2

> <OPENEYE_INCHI>
InChI=1S/C12H14N2O3/c13-11(15)8-3-5-9(6-4-8)14-12(16)10-2-1-7-17-10/h3-6,10H,1-2,7H2,(H2,13,15)(H,14,16)/t10-/m0/s1

> <OPENEYE_INCHIKEY>
FSZYBIFIACXSAG-JTQLQIEISA-N

> <FORMULA>
C12H14N2O3

$$$$
