@<TRIPOS>MOLECULE
/home/pku/3cl/gett_pdb/5RTI/5RTI_mol2/ligand/5RTI_6U6.pdb
 22 23 0 0 0
SMALL
GASTEIGER

@<TRIPOS>ATOM
      1  C9       -46.1360  -29.1980    3.9980 C.ar  201  6U6201      0.0393
      2  C1       -43.4240  -31.2260    0.8830 C.3   201  6U6201      0.0019
      3  C3       -44.6130  -29.5460    2.1340 C.ar  201  6U6201      0.0799
      4  C2       -43.4460  -29.7660    1.1600 C.3   201  6U6201      0.0019
      5  C5       -48.0120  -29.0380    2.5910 C.ar  201  6U6201     -0.0169
      6  C8       -46.8740  -29.0570    5.1330 C.ar  201  6U6201     -0.0445
      7  O1       -42.6070  -31.7380    3.1010 O.co2 201  6U6201     -0.3090
      8  C7       -48.1970  -28.8880    4.9880 C.ar  201  6U6201     -0.0422
      9  C6       -48.7480  -28.8650    3.7670 C.ar  201  6U6201      0.0431
     10  C4       -46.6920  -29.1570    2.7240 C.ar  201  6U6201      0.0799
     11 CL        -50.4930  -28.5980    3.7310 Cl    201  6U6201     -0.0835
     12  N        -45.8480  -29.3700    1.7560 N.ar  201  6U6201     -0.2440
     13  S        -44.4390  -29.4420    3.8650 S.2   201  6U6201     -0.0721
     14  C        -43.3190  -32.0580    2.1530 C.2   201  6U6201      0.0874
     15  O        -43.9350  -33.0880    2.1030 O.co2 201  6U6201     -0.8476
     16  H1       -44.2390  -31.4690    0.4160 H     201  6U6201      0.0337
     17  H2       -42.6640  -31.4260    0.3140 H     201  6U6201      0.0337
     18  H3       -42.6110  -29.4900    1.5700 H     201  6U6201      0.0337
     19  H4       -43.5970  -29.2720    0.3390 H     201  6U6201      0.0337
     20  H5       -48.3760  -28.9880    1.7460 H     201  6U6201      0.0654
     21  H6       -46.4760  -29.0650    5.9730 H     201  6U6201      0.0630
     22  H8       -48.7300  -28.7530    5.7380 H     201  6U6201      0.0632
@<TRIPOS>UNITY_ATOM_ATTR
15 1
charge -1
@<TRIPOS>BOND
     1    17     2    1
     2    19     4    1
     3    16     2    1
     4     2     4    1
     5     2    14    1
     6     4    18    1
     7     4     3    1
     8    20     5    1
     9    12     3   ar
    10    12    10   ar
    11    15    14   ar
    12     3    13   ar
    13    14     7   ar
    14     5    10   ar
    15     5     9   ar
    16    10     1   ar
    17    11     9    1
    18     9     8   ar
    19    13     1   ar
    20     1     6   ar
    21     8     6   ar
    22     8    22    1
    23     6    21    1
