@<TRIPOS>MOLECULE
/home/pku/3cl/gett_pdb/8E63/8E63_mol2/ligand/8E63_UV2.pdb
 31 32 0 0 0
SMALL
GASTEIGER

@<TRIPOS>ATOM
      1  N1        11.7680   23.4760   26.8520 N.am  401  UV2401     -0.1611
      2  C7        10.2790   21.6150   27.5080 C.2   401  UV2401      0.2614
      3  C8         8.6550   19.7560   27.6420 C.3   401  UV2401      0.1287
      4  N2         9.9120   20.3640   27.2090 N.am  401  UV2401     -0.2030
      5  C9         7.6780   19.6400   26.4690 C.3   401  UV2401      0.0335
      6  O1        10.4990   23.4900   24.9790 O.2   401  UV2401     -0.2246
      7  C1        11.0600   24.0710   25.8810 C.2   401  UV2401      0.4215
      8  O5        11.0360   25.3950   26.1020 O.3   401  UV2401     -0.4326
      9  C5        15.0810   21.7800   28.9470 C.3   401  UV2401      0.0001
     10  C6        14.6220   21.0180   26.6020 C.3   401  UV2401      0.0001
     11  N3         5.2880   21.6890   24.9160 N.am  401  UV2401     -0.2054
     12  C4        14.1610   21.9220   27.7340 C.3   401  UV2401      0.0022
     13  O4         9.5530   22.4070   28.1070 O.2   401  UV2401     -0.2715
     14  C3        12.7120   21.6200   28.1090 C.3   401  UV2401      0.0312
     15  O3         9.7400   18.5120   29.4110 O.3   401  UV2401     -0.2185
     16  C2        11.6790   22.0400   27.0650 C.3   401  UV2401      0.1761
     17  C10        7.2290   21.0060   25.9710 C.3   401  UV2401      0.0818
     18  C13        6.3800   21.7860   26.9650 C.3   401  UV2401      0.0326
     19  C11        6.3550   20.9210   24.7350 C.2   401  UV2401      0.2410
     20  C12        5.3900   22.5480   26.0900 C.3   401  UV2401      0.1156
     21  O2         6.6120   20.2580   23.7170 O.2   401  UV2401     -0.2734
     22  C14        8.9230   18.4000   28.2640 C.3   401  UV2401      0.2036
     23  C15       10.2760   26.2140   25.1770 C.3   401  UV2401      0.2221
     24  C16       11.1810   26.6250   24.0570 C.3   401  UV2401      0.1096
     25  C17       10.9820   29.6230   24.2550 C.ar  401  UV2401      0.0253
     26  C18       10.3530   30.8380   23.9960 C.ar  401  UV2401      0.0062
     27  C19       10.6690   31.9540   24.7540 C.ar  401  UV2401      0.0005
     28  C20       11.6110   31.8740   25.7520 C.ar  401  UV2401      0.0000
     29  C21       12.2430   30.6790   26.0090 C.ar  401  UV2401      0.0005
     30  C22       11.9360   29.5510   25.2650 C.ar  401  UV2401      0.0062
     31  S1        10.6150   28.1690   23.3090 S.3   401  UV2401     -0.1097
@<TRIPOS>BOND
     1    31    24    1
     2    31    25    1
     3    21    19    2
     4    26    25   ar
     5    26    27   ar
     6    24    23    1
     7    25    30   ar
     8    19    11   am
     9    19    17    1
    10    27    28   ar
    11    11    20    1
    12     6     7    2
    13    23     8    1
    14    30    29   ar
    15    28    29   ar
    16     7     8    1
    17     7     1   am
    18    17     5    1
    19    17    18    1
    20    20    18    1
    21     5     3    1
    22    10    12    1
    23     1    16    1
    24    16     2    1
    25    16    14    1
    26     4     2   am
    27     4     3    1
    28     2    13    2
    29     3    22    1
    30    12    14    1
    31    12     9    1
    32    22    15    1
