@<TRIPOS>MOLECULE
/home/pku/3cl/gett_pdb/5SPR/5SPR_mol2/ligand/5SPR_S6C.pdb
 33 35 0 0 0
SMALL
GASTEIGER

@<TRIPOS>ATOM
      1  C18      -45.7570  -29.8410    2.0180 C.3   201  S6C201      0.0835
      2  C16      -50.3780  -28.6350    3.0240 C.2   201  S6C201      0.3381
      3  C14      -49.0380  -28.9700    4.8660 C.2   201  S6C201      0.3772
      4  C12      -47.3000  -29.3510    6.1000 C.3   201  S6C201      0.2538
      5  C10      -47.9300  -29.1390    4.0420 C.3   201  S6C201      0.2762
      6  C02      -43.7730  -32.1030    2.7550 C.2   201  S6C201      0.0874
      7  C03      -43.9130  -31.4090    1.4070 C.3   201  S6C201      0.0023
      8  C04      -45.3810  -30.9840    1.0730 C.3   201  S6C201      0.0010
      9  C05      -45.5180  -30.5930   -0.3570 C.3   201  S6C201     -0.0430
     10  C06      -46.9120  -30.1630   -0.6790 C.3   201  S6C201     -0.0163
     11  C07      -47.3700  -28.9990    0.2080 C.3   201  S6C201      0.0804
     12  C09      -48.1300  -29.0470    2.6450 C.2   201  S6C201      0.3290
     13  N08      -47.0560  -29.2050    1.6590 N.pl3 201  S6C201     -0.2217
     14  N11      -46.8790  -29.3710    4.8520 N.3   201  S6C201     -0.2416
     15  N13      -48.6030  -29.1010    6.1290 N.2   201  S6C201     -0.0538
     16  N15      -50.2380  -28.7240    4.3270 N.2   201  S6C201      0.0009
     17  N17      -49.3530  -28.7960    2.1990 N.2   201  S6C201     -0.0048
     18  O01      -44.2040  -33.2740    2.8970 O.co2 201  S6C201     -0.8476
     19  O19      -43.2090  -31.5160    3.7140 O.co2 201  S6C201     -0.3090
     20 H181      -44.9690  -29.0840    2.0280 H     201  S6C201      0.0729
     21 H182      -45.8160  -30.2910    2.9900 H     201  S6C201      0.0729
     22 H161      -51.3570  -28.4490    2.6170 H     201  S6C201      0.1668
     23 H121      -46.6490  -29.5230    6.9470 H     201  S6C201      0.1067
     24 H031      -43.2620  -30.5390    1.4010 H     201  S6C201      0.0337
     25 H032      -43.5800  -32.1150    0.6620 H     201  S6C201      0.0337
     26 H041      -46.0420  -31.8220    1.2700 H     201  S6C201      0.0341
     27 H052      -44.8380  -29.7760   -0.5680 H     201  S6C201      0.0270
     28 H051      -45.2560  -31.4380   -0.9840 H     201  S6C201      0.0270
     29 H062      -47.5800  -31.0010   -0.5290 H     201  S6C201      0.0302
     30 H061      -46.9720  -29.8540   -1.7200 H     201  S6C201      0.0302
     31 H072      -48.4350  -28.8880    0.0600 H     201  S6C201      0.0726
     32 H071      -46.8790  -28.0940   -0.1300 H     201  S6C201      0.0726
     33 H111      -45.9270  -29.5370    4.5680 H     201  S6C201      0.1278
@<TRIPOS>UNITY_ATOM_ATTR
18 1
charge -1
@<TRIPOS>BOND
     1    30    10    1
     2    28     9    1
     3    10    29    1
     4    10     9    1
     5    10    11    1
     6    27     9    1
     7     9     8    1
     8    32    11    1
     9    31    11    1
    10    11    13    1
    11    25     7    1
    12     8    26    1
    13     8     7    1
    14     8     1    1
    15    24     7    1
    16     7     6    1
    17    13     1    1
    18    13    12    1
    19     1    20    1
    20     1    21    1
    21    17    12    2
    22    17     2    1
    23    22     2    1
    24    12     5    1
    25     6    18   ar
    26     6    19   ar
    27     2    16    2
    28     5    14    1
    29     5     3    1
    30    16     3    1
    31    33    14    1
    32    14     4    1
    33     3    15    2
    34     4    15    1
    35     4    23    1
