@<TRIPOS>MOLECULE
/home/pku/3cl/gett_pdb/5RTC/5RTC_mol2/ligand/5RTC_EVE.pdb
 20 21 0 0 0
SMALL
GASTEIGER

@<TRIPOS>ATOM
      1  N        -52.5530  -31.2160    7.8080 N.3   201  EVE201     -0.2007
      2  S        -52.6120  -29.5910    7.2840 S.O2  201  EVE201      0.0895
      3  N1       -50.0560  -29.3570    6.5280 N.ar  201  EVE201     -0.3220
      4  O1       -52.3860  -28.6970    8.2780 O.2   201  EVE201     -0.1503
      5  C2       -51.2690  -29.3590    6.1390 C.ar  201  EVE201      0.2668
      6  N2       -51.3350  -29.1240    4.8870 N.ar  201  EVE201     -0.2105
      7  O2       -53.8690  -29.4530    6.6830 O.2   201  EVE201     -0.1503
      8  C4       -47.8610  -29.0690    5.3730 C.ar  201  EVE201     -0.0362
      9  C5       -47.3830  -28.8490    4.1230 C.ar  201  EVE201     -0.0597
     10  C6       -48.2200  -28.7060    3.0670 C.ar  201  EVE201     -0.0596
     11  C7       -49.5980  -28.8270    3.2310 C.ar  201  EVE201     -0.0342
     12  C8       -50.1130  -29.0100    4.4650 C.ar  201  EVE201      0.0908
     13  C9       -49.2690  -29.1500    5.5340 C.ar  201  EVE201      0.0675
     14  HN       -53.2820  -31.6410    7.9740 H     201  EVE201      0.1443
     15  HNA      -51.7960  -31.6170    7.8810 H     201  EVE201      0.1443
     16  H4       -47.2870  -29.1630    6.0990 H     201  EVE201      0.0639
     17  H5       -46.4650  -28.7850    3.9900 H     201  EVE201      0.0618
     18  H6       -47.8690  -28.5590    2.2190 H     201  EVE201      0.0618
     19  H7       -50.1690  -28.7040    2.5070 H     201  EVE201      0.0639
     20  HN1      -49.8010  -29.4740    7.3410 H     201  EVE201      0.1687
@<TRIPOS>BOND
     1    18    10    1
     2    19    11    1
     3    10    11   ar
     4    10     9   ar
     5    11    12   ar
     6    17     9    1
     7     9     8   ar
     8    12     6   ar
     9    12    13   ar
    10     6     5   ar
    11     8    13   ar
    12     8    16    1
    13    13     3   ar
    14     5     3   ar
    15     5     2    1
    16     3    20    1
    17     7     2    2
    18     2     1    1
    19     2     4    2
    20     1    15    1
    21     1    14    1
