@<TRIPOS>MOLECULE
/home/pku/3cl/gett_pdb/5SON/5SON_mol2/ligand/5SON_WW1.pdb
 31 33 0 0 0
SMALL
GASTEIGER

@<TRIPOS>ATOM
      1  C10      -44.3760  -28.9120    1.7300 C.ar  201  WW1201      0.1171
      2  N12      -44.7700  -31.0150    1.6950 N.ar  201  WW1201     -0.1711
      3  C13      -44.4480  -35.1550   -2.6870 C.ar  201  WW1201     -0.0437
      4  C15      -42.9890  -35.0060   -4.5810 C.ar  201  WW1201     -0.0615
      5  C17      -42.8790  -36.9070   -3.1370 C.ar  201  WW1201     -0.0615
      6  C01      -46.6660  -35.5580   -1.5470 C.3   201  WW1201     -0.0576
      7  C02      -45.5520  -34.5500   -1.8250 C.3   201  WW1201     -0.0093
      8  C03      -44.9120  -34.1210   -0.5160 C.3   201  WW1201      0.0078
      9  C05      -45.0320  -32.3480    1.6760 C.ar  201  WW1201      0.2137
     10  C08      -43.9680  -30.8050    2.7090 C.ar  201  WW1201      0.2521
     11  C14      -43.9950  -34.4680   -3.7980 C.ar  201  WW1201     -0.0583
     12  C16      -42.4290  -36.2250   -4.2520 C.ar  201  WW1201     -0.0617
     13  C18      -43.8850  -36.3740   -2.3500 C.ar  201  WW1201     -0.0583
     14  N06      -44.3840  -32.9300    2.6500 N.ar  201  WW1201     -0.1188
     15  N07      -43.7190  -31.9820    3.3070 N.ar  201  WW1201     -0.1080
     16  N09      -43.6980  -29.4710    2.7590 N.ar  201  WW1201     -0.3124
     17  N11      -45.0380  -29.8400    1.0670 N.ar  201  WW1201     -0.1519
     18  S04      -46.0830  -33.1290    0.4470 S.3   201  WW1201     -0.0837
     19 H101      -44.3590  -27.8760    1.4790 H     201  WW1201      0.1046
     20 H151      -42.6380  -34.4710   -5.4510 H     201  WW1201      0.0618
     21 H171      -42.4410  -37.8570   -2.8820 H     201  WW1201      0.0618
     22 H011      -46.9140  -36.0830   -2.4630 H     201  WW1201      0.0236
     23 H013      -47.5470  -35.0330   -1.1820 H     201  WW1201      0.0236
     24 H012      -46.3390  -36.2730   -0.7970 H     201  WW1201      0.0236
     25 H021      -45.9610  -33.6810   -2.3180 H     201  WW1201      0.0354
     26 H031      -44.6120  -35.0010    0.0440 H     201  WW1201      0.0386
     27 H032      -44.0310  -33.5210   -0.7210 H     201  WW1201      0.0386
     28 H141      -44.4280  -33.5110   -4.0570 H     201  WW1201      0.0620
     29 H161      -41.6420  -36.6460   -4.8640 H     201  WW1201      0.0618
     30 H181      -44.2330  -36.9080   -1.4770 H     201  WW1201      0.0620
     31 H091      -43.1170  -29.0120    3.4280 H     201  WW1201      0.1698
@<TRIPOS>BOND
     1    20     4    1
     2    29    12    1
     3     4    12   ar
     4     4    11   ar
     5    12     5   ar
     6    28    11    1
     7    11     3   ar
     8     5    21    1
     9     5    13   ar
    10     3    13   ar
    11     3     7    1
    12    22     6    1
    13    13    30    1
    14    25     7    1
    15     7     6    1
    16     7     8    1
    17     6    23    1
    18     6    24    1
    19    27     8    1
    20     8    26    1
    21     8    18    1
    22    18     9    1
    23    17     2   ar
    24    17     1   ar
    25    19     1    1
    26     9     2   ar
    27     9    14   ar
    28     2    10   ar
    29     1    16   ar
    30    14    15   ar
    31    10    16   ar
    32    10    15   ar
    33    16    31    1
