YRL
  -OEChem-02242320043D

 20 20  0     0  0  0  0  0  0999 V2000
   -0.4120    0.0010   -0.4110 C   0  0  0  0  0  0  0  0  0  0  0  0
    0.2640   -1.1970   -0.2750 C   0  0  0  0  0  0  0  0  0  0  0  0
    0.2650    1.1990   -0.2720 C   0  0  0  0  0  0  0  0  0  0  0  0
    1.6180   -1.2010    0.0010 C   0  0  0  0  0  0  0  0  0  0  0  0
    1.6190    1.2010    0.0030 C   0  0  0  0  0  0  0  0  0  0  0  0
    2.2990   -0.0010    0.1410 C   0  0  0  0  0  0  0  0  0  0  0  0
    3.6310   -0.0020    0.4130 O   0  0  0  0  0  0  0  0  0  0  0  0
   -1.8870    0.0020   -0.7180 C   0  0  0  0  0  0  0  0  0  0  0  0
   -2.6800   -0.0020    0.5900 C   0  0  0  0  0  0  0  0  0  0  0  0
   -4.0790   -0.0010    0.2990 O   0  0  0  0  0  0  0  0  0  0  0  0
   -0.2670   -2.1310   -0.3830 H   0  0  0  0  0  0  0  0  0  0  0  0
   -0.2650    2.1340   -0.3790 H   0  0  0  0  0  0  0  0  0  0  0  0
    2.1450   -2.1370    0.1080 H   0  0  0  0  0  0  0  0  0  0  0  0
    2.1480    2.1360    0.1110 H   0  0  0  0  0  0  0  0  0  0  0  0
    4.1930   -0.0010   -0.3740 H   0  0  0  0  0  0  0  0  0  0  0  0
   -2.1380    0.8940   -1.2930 H   0  0  0  0  0  0  0  0  0  0  0  0
   -2.1380   -0.8860   -1.2980 H   0  0  0  0  0  0  0  0  0  0  0  0
   -2.4290   -0.8940    1.1640 H   0  0  0  0  0  0  0  0  0  0  0  0
   -2.4290    0.8860    1.1700 H   0  0  0  0  0  0  0  0  0  0  0  0
   -4.6440   -0.0030    1.0830 H   0  0  0  0  0  0  0  0  0  0  0  0
  9 10  1  0  0  0  0
  8  9  1  0  0  0  0
  1  8  1  0  0  0  0
  1  2  2  0  0  0  0
  1  3  1  0  0  0  0
  2  4  1  0  0  0  0
  3  5  2  0  0  0  0
  4  6  2  0  0  0  0
  5  6  1  0  0  0  0
  6  7  1  0  0  0  0
  2 11  1  0  0  0  0
  3 12  1  0  0  0  0
  4 13  1  0  0  0  0
  5 14  1  0  0  0  0
  7 15  1  0  0  0  0
  8 16  1  0  0  0  0
  8 17  1  0  0  0  0
  9 18  1  0  0  0  0
  9 19  1  0  0  0  0
 10 20  1  0  0  0  0
M  END
> <OPENEYE_ISO_SMILES>
c1cc(ccc1CCO)O

> <OPENEYE_INCHI>
InChI=1S/C8H10O2/c9-6-5-7-1-3-8(10)4-2-7/h1-4,9-10H,5-6H2

> <OPENEYE_INCHIKEY>
YCCILVSKPBXVIP-UHFFFAOYSA-N

> <FORMULA>
C8H10O2

$$$$
