OAR
  -OEChem-02242320033D

 27 26  0     1  0  0  0  0  0999 V2000
    4.9450    0.1010   -0.3990 O   0  0  0  0  0  0  0  0  0  0  0  0
    2.6800   -1.2910    0.7500 N   0  0  0  0  0  0  0  0  0  0  0  0
   -2.3840   -0.4430   -0.2030 N   0  0  0  0  0  0  0  0  0  0  0  0
   -4.7380   -0.7960   -0.2820 N   0  0  0  0  0  0  0  0  0  0  0  0
   -3.8620    1.2430    0.3940 N   0  0  0  0  0  0  0  0  0  0  0  0
    2.5530   -0.1730   -0.1950 C   0  0  1  0  0  0  0  0  0  0  0  0
    1.2530    0.5850    0.0840 C   0  0  0  0  0  0  0  0  0  0  0  0
    0.0590   -0.3270   -0.2050 C   0  0  0  0  0  0  0  0  0  0  0  0
   -1.2410    0.4300    0.0740 C   0  0  0  0  0  0  0  0  0  0  0  0
   -3.6650    0.0230   -0.0230 C   0  0  0  0  0  0  0  0  0  0  0  0
    3.7420    0.7750   -0.0260 C   0  0  0  0  0  0  0  0  0  0  0  0
    5.7420    0.6430   -0.3170 H   0  0  0  0  0  0  0  0  0  0  0  0
    3.4980   -1.8450    0.5450 H   0  0  0  0  0  0  0  0  0  0  0  0
    2.6970   -0.9590    1.7020 H   0  0  0  0  0  0  0  0  0  0  0  0
   -2.2370   -1.3500   -0.5130 H   0  0  0  0  0  0  0  0  0  0  0  0
   -4.5910   -1.7030   -0.5920 H   0  0  0  0  0  0  0  0  0  0  0  0
   -5.6410   -0.4670   -0.1550 H   0  0  0  0  0  0  0  0  0  0  0  0
   -4.7650    1.5720    0.5210 H   0  0  0  0  0  0  0  0  0  0  0  0
    2.5370   -0.5580   -1.2140 H   0  0  0  0  0  0  0  0  0  0  0  0
    1.2300    0.8940    1.1290 H   0  0  0  0  0  0  0  0  0  0  0  0
    1.2010    1.4650   -0.5560 H   0  0  0  0  0  0  0  0  0  0  0  0
    0.0820   -0.6360   -1.2500 H   0  0  0  0  0  0  0  0  0  0  0  0
    0.1110   -1.2080    0.4360 H   0  0  0  0  0  0  0  0  0  0  0  0
   -1.2930    1.3110   -0.5660 H   0  0  0  0  0  0  0  0  0  0  0  0
   -1.2640    0.7390    1.1190 H   0  0  0  0  0  0  0  0  0  0  0  0
    3.8100    1.0910    1.0150 H   0  0  0  0  0  0  0  0  0  0  0  0
    3.6030    1.6490   -0.6630 H   0  0  0  0  0  0  0  0  0  0  0  0
  1 11  1  0  0  0  0
  6 11  1  0  0  0  0
  2  6  1  0  0  0  0
  6  7  1  0  0  0  0
  7  8  1  0  0  0  0
  8  9  1  0  0  0  0
  3  9  1  0  0  0  0
  3 10  1  0  0  0  0
  5 10  2  0  0  0  0
  4 10  1  0  0  0  0
  1 12  1  0  0  0  0
  2 13  1  0  0  0  0
  2 14  1  0  0  0  0
  3 15  1  0  0  0  0
  4 16  1  0  0  0  0
  4 17  1  0  0  0  0
  5 18  1  0  0  0  0
  6 19  1  0  0  0  0
  7 20  1  0  0  0  0
  7 21  1  0  0  0  0
  8 22  1  0  0  0  0
  8 23  1  0  0  0  0
  9 24  1  0  0  0  0
  9 25  1  0  0  0  0
 11 26  1  0  0  0  0
 11 27  1  0  0  0  0
M  END
> <OPENEYE_ISO_SMILES>
[H]/N=C(\N)/NCCC[C@@H](CO)N

> <OPENEYE_INCHI>
InChI=1S/C6H16N4O/c7-5(4-11)2-1-3-10-6(8)9/h5,11H,1-4,7H2,(H4,8,9,10)/t5-/m0/s1

> <OPENEYE_INCHIKEY>
UFAABHKZLQFLSG-YFKPBYRVSA-N

> <FORMULA>
C6H16N4O

$$$$
