T5Y
  -OEChem-02242320043D

 12 12  0     0  0  0  0  0  0999 V2000
    1.0870    1.1940   -0.0030 C   0  0  0  0  0  0  0  0  0  0  0  0
   -0.2310    1.1490    0.0130 N   0  0  0  0  0  0  0  0  0  0  0  0
   -0.8870    0.0010    0.0210 C   0  0  0  0  0  0  0  0  0  0  0  0
   -2.2440    0.0010    0.0370 O   0  0  0  0  0  0  0  0  0  0  0  0
   -0.2000   -1.2070    0.0130 C   0  0  0  0  0  0  0  0  0  0  0  0
    1.1840   -1.1930   -0.0040 C   0  0  0  0  0  0  0  0  0  0  0  0
    1.8340    0.0330   -0.0180 C   0  0  0  0  0  0  0  0  0  0  0  0
    1.5880    2.1510   -0.0090 H   0  0  0  0  0  0  0  0  0  0  0  0
   -2.6470    0.0010   -0.8420 H   0  0  0  0  0  0  0  0  0  0  0  0
   -0.7380   -2.1430    0.0190 H   0  0  0  0  0  0  0  0  0  0  0  0
    1.7450   -2.1160   -0.0110 H   0  0  0  0  0  0  0  0  0  0  0  0
    2.9130    0.0790   -0.0310 H   0  0  0  0  0  0  0  0  0  0  0  0
  3  4  1  0  0  0  0
  3  5  1  0  0  0  0
  5  6  2  0  0  0  0
  6  7  1  0  0  0  0
  1  7  2  0  0  0  0
  1  2  1  0  0  0  0
  2  3  2  0  0  0  0
  1  8  1  0  0  0  0
  4  9  1  0  0  0  0
  5 10  1  0  0  0  0
  6 11  1  0  0  0  0
  7 12  1  0  0  0  0
M  END
> <OPENEYE_ISO_SMILES>
c1ccnc(c1)O

> <OPENEYE_INCHI>
InChI=1S/C5H5NO/c7-5-3-1-2-4-6-5/h1-4H,(H,6,7)

> <OPENEYE_INCHIKEY>
UBQKCCHYAOITMY-UHFFFAOYSA-N

> <FORMULA>
C5H5NO

$$$$
