@<TRIPOS>MOLECULE
/home/pku/3cl/gett_pdb/7C7P/7C7P_mol2/ligand/7C7P_SV6.pdb
 49 53 0 0 0
SMALL
GASTEIGER

@<TRIPOS>ATOM
      1  CBN      -18.0700  -11.3360  -35.0410 C.ar  401  SV6401      0.1552
      2  CBO      -18.7490  -12.7020  -36.8590 C.ar  401  SV6401      0.1196
      3  CBP      -18.0150  -13.7570  -36.3290 C.ar  401  SV6401      0.1195
      4  CBB      -18.1140   -9.9940  -34.3270 C.2   401  SV6401      0.2845
      5  CBQ      -17.3480  -12.4090  -34.5120 C.ar  401  SV6401      0.1226
      6  OBW      -17.5260   -9.8790  -33.2370 O.2   401  SV6401     -0.2666
      7  NAF      -18.7710  -11.5220  -36.2020 N.ar  401  SV6401     -0.2360
      8  NAG      -17.3320  -13.5790  -35.1760 N.ar  401  SV6401     -0.2390
      9  NAD      -18.7460   -9.0030  -34.8650 N.am  401  SV6401     -0.1927
     10  CAY      -18.8140   -7.7350  -34.1350 C.3   401  SV6401      0.1730
     11  CAX      -19.8720   -7.8910  -33.0860 C.2   401  SV6401      0.2616
     12  OBU      -20.9090   -8.4650  -33.3850 O.2   401  SV6401     -0.2715
     13  CBH      -19.1380   -6.6310  -35.1420 C.3   401  SV6401      0.0290
     14  CBI      -17.9270   -6.4410  -36.0350 C.3   401  SV6401      0.0022
     15  CBJ      -18.0490   -5.2490  -36.9850 C.3   401  SV6401      0.0001
     16  CBK      -18.4790   -3.9700  -36.2130 C.3   401  SV6401      0.0000
     17  CBL      -19.7500   -4.2210  -35.4100 C.3   401  SV6401      0.0001
     18  CBM      -19.5260   -5.3400  -34.4060 C.3   401  SV6401      0.0022
     19  NAC      -19.5930   -7.4700  -31.9020 N.am  401  SV6401     -0.1964
     20  CAW      -20.5720   -7.5460  -30.8250 C.3   401  SV6401      0.1711
     21  CAZ      -20.2830   -8.6930  -29.8380 C.3   401  SV6401      0.0269
     22  CBC      -18.8980   -8.5630  -29.1730 C.3   401  SV6401      0.0022
     23  CBD      -20.2490   -9.9930  -30.6580 C.3   401  SV6401      0.0022
     24  CBA      -21.4400   -8.7580  -28.8110 C.3   401  SV6401      0.0022
     25  CAV      -20.7100   -6.1640  -30.1880 C.2   401  SV6401      0.2458
     26  OBT      -19.6890   -5.6590  -29.6650 O.2   401  SV6401     -0.2730
     27  C        -22.3820   -4.6610  -28.0530 C.2   401  SV6401      0.2595
     28  N        -21.9240   -5.5960  -30.2360 N.am  401  SV6401     -0.2716
     29  O        -23.2020   -5.5350  -27.7520 O.2   401  SV6401     -0.2716
     30  CA       -22.2760   -4.3530  -29.4970 C.3   401  SV6401      0.1535
     31  CB       -23.5600   -3.8140  -30.0880 C.3   401  SV6401      0.0288
     32  CG       -23.8420   -4.7620  -31.2510 C.3   401  SV6401      0.0219
     33  CBE      -23.4430   -2.4440  -30.7090 C.3   401  SV6401      0.0022
     34  CBF      -23.0840   -2.6700  -32.1970 C.3   401  SV6401      0.0001
     35  CD1      -23.1040   -6.0590  -30.9520 C.3   401  SV6401      0.0939
     36  CD2      -23.2960   -4.1380  -32.5300 C.3   401  SV6401      0.0018
     37  NAA      -23.7330   -3.9730  -23.2090 N.am  401  SV6401     -0.2050
     38  NAE      -21.6040   -4.0260  -27.2630 N.am  401  SV6401     -0.2027
     39  CAH      -21.6720   -4.3390  -25.7850 C.3   401  SV6401      0.1347
     40  CAI      -22.1820   -3.1930  -24.9320 C.3   401  SV6401      0.2487
     41  CAJ      -20.2530   -4.7480  -25.4190 C.3   401  SV6401      0.0248
     42  CAK      -20.1490   -6.2150  -25.8440 C.3   401  SV6401      0.0019
     43  CAL      -18.7550   -6.7800  -25.6500 C.3   401  SV6401      0.0001
     44  CAM      -22.5100   -3.6300  -23.5060 C.2   401  SV6401      0.2736
     45  CAN      -24.2180   -4.3870  -21.8940 C.3   401  SV6401      0.0955
     46  CAO      -25.4880   -5.2380  -21.8640 C.3   401  SV6401      0.0234
     47  CAP      -24.1380   -5.9030  -21.6870 C.3   401  SV6401      0.0234
     48  OBR      -23.3810   -2.6090  -25.4840 O.3   401  SV6401     -0.2113
     49  OBS      -21.6010   -3.5740  -22.7060 O.2   401  SV6401     -0.2705
@<TRIPOS>BOND
     1    15    16    1
     2    15    14    1
     3     2     3   ar
     4     2     7   ar
     5     3     8   ar
     6    16    17    1
     7     7     1   ar
     8    14    13    1
     9    17    18    1
    10     8     5   ar
    11    13    18    1
    12    13    10    1
    13     1     5   ar
    14     1     4    1
    15     9     4   am
    16     9    10    1
    17     4     6    2
    18    10    11    1
    19    12    11    2
    20    11    19   am
    21    36    34    1
    22    36    32    1
    23    34    33    1
    24    19    20    1
    25    32    35    1
    26    32    31    1
    27    35    28    1
    28    20    25    1
    29    20    21    1
    30    33    31    1
    31    23    21    1
    32    28    25   am
    33    28    30    1
    34    25    26    2
    35    31    30    1
    36    21    22    1
    37    21    24    1
    38    30    27    1
    39    27    29    2
    40    27    38   am
    41    38    39    1
    42    42    43    1
    43    42    41    1
    44    39    41    1
    45    39    40    1
    46    48    40    1
    47    40    44    1
    48    44    37   am
    49    44    49    2
    50    37    45    1
    51    45    46    1
    52    45    47    1
    53    46    47    1
