@<TRIPOS>MOLECULE
/home/pku/3cl/gett_pdb/5SOS/5SOS_mol2/ligand/5SOS_WWS.pdb
 27 29 0 0 0
SMALL
GASTEIGER

@<TRIPOS>ATOM
      1  C10      -45.0130  -28.5560    1.4670 C.ar  201  WWS201      0.0587
      2  C13      -43.8560  -26.5430    0.1160 C.ar  201  WWS201      0.0590
      3  C15      -43.0560  -27.3960    0.8690 C.ar  201  WWS201     -0.0402
      4  C17      -47.6000  -29.1710    3.3420 C.3   201  WWS201      0.2727
      5  C02      -47.7270  -28.8480    5.6150 C.2   201  WWS201      0.3349
      6  C03      -46.3450  -29.0710    5.7110 C.ar  201  WWS201      0.1951
      7  C05      -44.2670  -29.3570    6.2960 C.ar  201  WWS201      0.1192
      8  C07      -45.6460  -29.3420    4.6160 C.ar  201  WWS201      0.1602
      9  C09      -45.5890  -29.7160    2.2180 C.3   201  WWS201      0.0598
     10  C12      -45.2200  -26.7610    0.0810 C.ar  201  WWS201      0.0462
     11  C16      -43.6610  -28.4230    1.5450 C.ar  201  WWS201     -0.0375
     12  N01      -48.5180  -28.5600    6.7880 N.pl3 201  WWS201     -0.2451
     13  N04      -45.4900  -29.0920    6.7620 N.ar  201  WWS201     -0.2247
     14  N06      -44.3440  -29.5100    4.9720 N.ar  201  WWS201     -0.2182
     15  N08      -46.2840  -29.3730    3.4290 N.pl3 201  WWS201     -0.2608
     16  N11      -45.7540  -27.7490    0.7540 N.ar  201  WWS201     -0.2569
     17  N18      -48.3280  -28.8920    4.4350 N.2   201  WWS201     -0.0513
     18 CL14      -43.1700  -25.1840   -0.8020 Cl    201  WWS201     -0.0820
     19 H151      -42.1460  -27.3000    0.9340 H     201  WWS201      0.0633
     20 H171      -48.0070  -29.2110    2.5270 H     201  WWS201      0.1115
     21 H051      -43.4910  -29.4160    6.8050 H     201  WWS201      0.1048
     22 H092      -44.8620  -30.3170    2.4330 H     201  WWS201      0.0530
     23 H091      -46.2150  -30.1830    1.6400 H     201  WWS201      0.0530
     24 H121      -45.7690  -26.2040   -0.4230 H     201  WWS201      0.0844
     25 H161      -43.1780  -29.0210    2.0630 H     201  WWS201      0.0636
     26 H012      -48.6240  -27.7440    7.0430 H     201  WWS201      0.2885
     27 H011      -48.8760  -29.1990    7.2360 H     201  WWS201      0.2885
@<TRIPOS>BOND
     1    18     2    1
     2    24    10    1
     3    10     2   ar
     4    10    16   ar
     5     2     3   ar
     6    16     1   ar
     7     3    19    1
     8     3    11   ar
     9     1    11   ar
    10     1     9    1
    11    11    25    1
    12    23     9    1
    13     9    22    1
    14     9    15    1
    15    20     4    1
    16     4    15    1
    17     4    17    1
    18    15     8    1
    19    17     5    2
    20     8    14   ar
    21     8     6   ar
    22    14     7   ar
    23     5     6    1
    24     5    12    1
    25     6    13   ar
    26     7    13   ar
    27     7    21    1
    28    12    26    1
    29    12    27    1
