JJM
  -OEChem-02242320033D

 31 33  0     0  0  0  0  0  0999 V2000
    1.7670    0.5360    0.0830 C   0  0  0  0  0  0  0  0  0  0  0  0
    3.6210    1.7040    0.3080 N   0  0  0  0  0  0  0  0  0  0  0  0
   -5.4390    1.3100   -0.7520 C   0  0  0  0  0  0  0  0  0  0  0  0
   -4.2710    0.5080   -0.2380 C   0  0  0  0  0  0  0  0  0  0  0  0
   -4.4740   -0.7670    0.2570 C   0  0  0  0  0  0  0  0  0  0  0  0
   -3.4060   -1.5070    0.7300 C   0  0  0  0  0  0  0  0  0  0  0  0
   -2.1320   -0.9740    0.7090 C   0  0  0  0  0  0  0  0  0  0  0  0
   -1.9250    0.3070    0.2130 C   0  0  0  0  0  0  0  0  0  0  0  0
   -3.0000    1.0450   -0.2660 C   0  0  0  0  0  0  0  0  0  0  0  0
   -0.6370    0.8500    0.1910 N   0  0  0  0  0  0  0  0  0  0  0  0
    0.4570    0.0280   -0.0070 C   0  0  0  0  0  0  0  0  0  0  0  0
    2.3230    1.8050    0.3520 C   0  0  0  0  0  0  0  0  0  0  0  0
    3.9820    0.3840    0.0070 N   0  0  0  0  0  0  0  0  0  0  0  0
    2.8420   -0.3480   -0.1360 C   0  0  0  0  0  0  0  0  0  0  0  0
    2.5780   -1.6230   -0.4160 N   0  0  0  0  0  0  0  0  0  0  0  0
    1.3360   -2.0520   -0.4880 C   0  0  0  0  0  0  0  0  0  0  0  0
    0.2970   -1.2610   -0.2880 N   0  0  0  0  0  0  0  0  0  0  0  0
    5.3500   -0.1220   -0.1290 C   0  0  0  0  0  0  0  0  0  0  0  0
   -5.8680    1.8920    0.0640 H   0  0  0  0  0  0  0  0  0  0  0  0
   -5.0980    1.9840   -1.5380 H   0  0  0  0  0  0  0  0  0  0  0  0
   -6.1940    0.6350   -1.1540 H   0  0  0  0  0  0  0  0  0  0  0  0
   -5.4690   -1.1870    0.2750 H   0  0  0  0  0  0  0  0  0  0  0  0
   -3.5680   -2.5030    1.1150 H   0  0  0  0  0  0  0  0  0  0  0  0
   -1.2980   -1.5520    1.0790 H   0  0  0  0  0  0  0  0  0  0  0  0
   -2.8420    2.0410   -0.6530 H   0  0  0  0  0  0  0  0  0  0  0  0
   -0.5100    1.8040    0.3150 H   0  0  0  0  0  0  0  0  0  0  0  0
    1.7670    2.7070    0.5590 H   0  0  0  0  0  0  0  0  0  0  0  0
    1.1600   -3.0920   -0.7180 H   0  0  0  0  0  0  0  0  0  0  0  0
    5.7070   -0.4710    0.8400 H   0  0  0  0  0  0  0  0  0  0  0  0
    5.3630   -0.9470   -0.8410 H   0  0  0  0  0  0  0  0  0  0  0  0
    5.9990    0.6780   -0.4880 H   0  0  0  0  0  0  0  0  0  0  0  0
 13 18  1  0  0  0  0
  2 13  1  0  0  0  0
  2 12  2  0  0  0  0
 13 14  1  0  0  0  0
  1 12  1  0  0  0  0
 14 15  2  0  0  0  0
  1 14  1  0  0  0  0
 15 16  1  0  0  0  0
  1 11  2  0  0  0  0
 16 17  2  0  0  0  0
 11 17  1  0  0  0  0
 10 11  1  0  0  0  0
  8 10  1  0  0  0  0
  7  8  2  0  0  0  0
  8  9  1  0  0  0  0
  6  7  1  0  0  0  0
  4  9  2  0  0  0  0
  5  6  2  0  0  0  0
  4  5  1  0  0  0  0
  3  4  1  0  0  0  0
  3 19  1  0  0  0  0
  3 20  1  0  0  0  0
  3 21  1  0  0  0  0
  5 22  1  0  0  0  0
  6 23  1  0  0  0  0
  7 24  1  0  0  0  0
  9 25  1  0  0  0  0
 10 26  1  0  0  0  0
 12 27  1  0  0  0  0
 16 28  1  0  0  0  0
 18 29  1  0  0  0  0
 18 30  1  0  0  0  0
 18 31  1  0  0  0  0
M  END
> <OPENEYE_ISO_SMILES>
Cc1cccc(c1)Nc2c3cnn(c3ncn2)C

> <OPENEYE_INCHI>
InChI=1S/C13H13N5/c1-9-4-3-5-10(6-9)17-12-11-7-16-18(2)13(11)15-8-14-12/h3-8H,1-2H3,(H,14,15,17)

> <OPENEYE_INCHIKEY>
MLUHWTUFJZKUST-UHFFFAOYSA-N

> <FORMULA>
C13H13N5

$$$$
