T1S
  -OEChem-02242320043D

 28 29  0     0  0  0  0  0  0999 V2000
    4.2050   -0.1850   -0.2520 C   0  0  0  0  0  0  0  0  0  0  0  0
    1.6040    0.9510    0.0330 C   0  0  0  0  0  0  0  0  0  0  0  0
   -2.5850    0.1660    0.0030 C   0  0  0  0  0  0  0  0  0  0  0  0
   -3.0150   -0.8850   -0.7870 C   0  0  0  0  0  0  0  0  0  0  0  0
   -2.2080   -1.9930   -0.9610 C   0  0  0  0  0  0  0  0  0  0  0  0
   -0.9720   -2.0520   -0.3470 C   0  0  0  0  0  0  0  0  0  0  0  0
   -0.5410   -1.0020    0.4430 C   0  0  0  0  0  0  0  0  0  0  0  0
    0.8070   -1.0660    1.1130 C   0  0  0  0  0  0  0  0  0  0  0  0
    3.1780   -0.7480    0.7340 C   0  0  0  0  0  0  0  0  0  0  0  0
    2.6470    1.4960   -0.9460 C   0  0  0  0  0  0  0  0  0  0  0  0
   -1.3450    0.1090    0.6140 C   0  0  0  0  0  0  0  0  0  0  0  0
    1.8240   -0.4910    0.2220 N   0  0  0  0  0  0  0  0  0  0  0  0
    3.9560    1.2100   -0.4480 O   0  0  0  0  0  0  0  0  0  0  0  0
   -3.5980    1.5590    0.2220 Cl  0  0  0  0  0  0  0  0  0  0  0  0
    5.2090   -0.3220    0.1500 H   0  0  0  0  0  0  0  0  0  0  0  0
    4.1200   -0.7070   -1.2050 H   0  0  0  0  0  0  0  0  0  0  0  0
    1.7000    1.4630    0.9900 H   0  0  0  0  0  0  0  0  0  0  0  0
    0.6040    1.1170   -0.3700 H   0  0  0  0  0  0  0  0  0  0  0  0
   -3.9820   -0.8390   -1.2670 H   0  0  0  0  0  0  0  0  0  0  0  0
   -2.5440   -2.8140   -1.5780 H   0  0  0  0  0  0  0  0  0  0  0  0
   -0.3410   -2.9180   -0.4830 H   0  0  0  0  0  0  0  0  0  0  0  0
    0.7780   -0.5000    2.0440 H   0  0  0  0  0  0  0  0  0  0  0  0
    1.0580   -2.1050    1.3270 H   0  0  0  0  0  0  0  0  0  0  0  0
    3.3290   -1.8220    0.8420 H   0  0  0  0  0  0  0  0  0  0  0  0
    3.3000   -0.2630    1.7020 H   0  0  0  0  0  0  0  0  0  0  0  0
    2.5150    1.0230   -1.9190 H   0  0  0  0  0  0  0  0  0  0  0  0
    2.5230    2.5750   -1.0460 H   0  0  0  0  0  0  0  0  0  0  0  0
   -1.0070    0.9310    1.2280 H   0  0  0  0  0  0  0  0  0  0  0  0
  3 14  1  0  0  0  0
  3  4  2  0  0  0  0
  4  5  1  0  0  0  0
  5  6  2  0  0  0  0
  6  7  1  0  0  0  0
  8 12  1  0  0  0  0
  9 12  1  0  0  0  0
  1  9  1  0  0  0  0
  1 13  1  0  0  0  0
 10 13  1  0  0  0  0
  2 10  1  0  0  0  0
  7  8  1  0  0  0  0
  7 11  2  0  0  0  0
  3 11  1  0  0  0  0
  2 12  1  0  0  0  0
  1 15  1  0  0  0  0
  1 16  1  0  0  0  0
  2 17  1  0  0  0  0
  2 18  1  0  0  0  0
  4 19  1  0  0  0  0
  5 20  1  0  0  0  0
  6 21  1  0  0  0  0
  8 22  1  0  0  0  0
  8 23  1  0  0  0  0
  9 24  1  0  0  0  0
  9 25  1  0  0  0  0
 10 26  1  0  0  0  0
 10 27  1  0  0  0  0
 11 28  1  0  0  0  0
M  END
> <OPENEYE_ISO_SMILES>
c1cc(cc(c1)Cl)CN2CCOCC2

> <OPENEYE_INCHI>
InChI=1S/C11H14ClNO/c12-11-3-1-2-10(8-11)9-13-4-6-14-7-5-13/h1-3,8H,4-7,9H2

> <OPENEYE_INCHIKEY>
NWMZWMSJQLEJTG-UHFFFAOYSA-N

> <FORMULA>
C11H14ClNO

$$$$
