@<TRIPOS>MOLECULE
/home/pku/3cl/gett_pdb/5SPV/5SPV_mol2/ligand/5SPV_S7O.pdb
 27 28 0 0 0
SMALL
GASTEIGER

@<TRIPOS>ATOM
      1  C16      -44.1250  -32.1630    2.7910 C.2   201  S7O201      0.0590
      2  C15      -45.1060  -31.3020    1.9990 C.3   201  S7O201      0.0540
      3  C12      -49.7840  -28.8970    3.5650 C.2   201  S7O201      0.4309
      4  C10      -47.3640  -28.8820    2.9770 C.3   201  S7O201      0.1743
      5  C01      -43.2730  -30.0040    0.9500 C.3   201  S7O201      0.0038
      6  C03      -44.8810  -28.8680    2.5660 C.2   201  S7O201      0.2468
      7  C04      -46.0870  -28.9380    3.4970 C.2   201  S7O201      0.0618
      8  C05      -45.9170  -29.0500    4.8640 C.2   201  S7O201     -0.0420
      9  C06      -47.0520  -29.0980    5.6540 C.2   201  S7O201      0.0301
     10  C07      -48.3210  -29.0310    5.0430 C.2   201  S7O201      0.3349
     11  N02      -44.4300  -30.0380    1.8360 N.am  201  S7O201     -0.2953
     12  N08      -49.6310  -29.0800    5.8650 N.pl3 201  S7O201      0.0772
     13  N09      -50.6010  -28.9810    4.7060 N.am  201  S7O201     -0.0817
     14  N11      -48.4450  -28.9300    3.7720 N.am  201  S7O201     -0.1260
     15  O13      -50.2530  -28.8060    2.4800 O.2   201  S7O201     -0.2202
     16  O14      -44.3240  -27.8290    2.4360 O.2   201  S7O201     -0.2702
     17  O17      -43.4290  -31.6280    3.6980 O.co2 201  S7O201     -0.5482
     18  O18      -43.9940  -33.3850    2.5250 O.co2 201  S7O201     -0.5482
     19 H151      -45.2350  -31.6950    1.1290 H     201  S7O201      0.0526
     20 H152      -45.9760  -31.1980    2.4400 H     201  S7O201      0.0526
     21 H101      -47.4770  -28.8180    2.0600 H     201  S7O201      0.0868
     22 H013      -43.5090  -30.4080    0.1000 H     201  S7O201      0.0429
     23 H012      -42.5450  -30.5110    1.3530 H     201  S7O201      0.0429
     24 H011      -42.9860  -29.0920    0.8090 H     201  S7O201      0.0429
     25 H051      -45.0680  -29.0990    5.2480 H     201  S7O201      0.0626
     26 H061      -46.9790  -29.1800    6.5780 H     201  S7O201      0.0697
     27 H091      -51.4590  -28.9790    4.7320 H     201  S7O201      0.2060
@<TRIPOS>UNITY_ATOM_ATTR
17 1
charge -1
@<TRIPOS>BOND
     1    22     5    1
     2    24     5    1
     3     5    23    1
     4     5    11    1
     5    19     2    1
     6    11     2    1
     7    11     6   am
     8     2    20    1
     9     2     1    1
    10    21     4    1
    11    16     6    2
    12    15     3    2
    13    18     1   ar
    14     6     7    1
    15     1    17   ar
    16     4     7    1
    17     4    14    1
    18     7     8    2
    19     3    14   am
    20     3    13   am
    21    14    10    1
    22    13    27    1
    23    13    12    1
    24     8    25    1
    25     8     9    1
    26    10     9    2
    27    10    12    1
    28     9    26    1
