@<TRIPOS>MOLECULE
/home/pku/3cl/gett_pdb/5RSW/5RSW_mol2/ligand/5RSW_6FZ.pdb
 21 22 0 0 0
SMALL
GASTEIGER

@<TRIPOS>ATOM
      1  C1       -44.8840  -26.1500   -0.0270 C.ar  201  6FZ201     -0.0615
      2  C2       -43.8840  -26.9570    0.4810 C.ar  201  6FZ201     -0.0583
      3  C3       -44.1970  -28.2200    0.9720 C.ar  201  6FZ201     -0.0435
      4  C4       -45.4990  -28.6840    0.9430 C.ar  201  6FZ201     -0.0435
      5  C5       -46.4990  -27.9000    0.4030 C.ar  201  6FZ201     -0.0583
      6  C6       -45.5800  -30.1140    1.5080 C.3   201  6FZ201     -0.0184
      7  C7       -44.1200  -30.5680    1.4860 C.3   201  6FZ201      0.0157
      8  C8       -43.2790  -29.2950    1.5780 C.3   201  6FZ201     -0.0184
      9  O1       -44.3620  -32.6140    2.6200 O.co2 201  6FZ201     -0.8474
     10  C9       -43.9310  -31.4610    2.6910 C.2   201  6FZ201      0.0908
     11  O        -43.3950  -31.0380    3.7550 O.co2 201  6FZ201     -0.3087
     12  C        -46.1920  -26.6300   -0.0740 C.ar  201  6FZ201     -0.0615
     13  H1       -44.6830  -25.3030   -0.3550 H     201  6FZ201      0.0618
     14  H2       -43.0080  -26.6470    0.5170 H     201  6FZ201      0.0620
     15  H3       -47.3760  -28.2080    0.3830 H     201  6FZ201      0.0620
     16  H4       -46.1110  -30.6740    0.9200 H     201  6FZ201      0.0320
     17  H5       -45.9070  -30.0920    2.4210 H     201  6FZ201      0.0320
     18  H6       -43.9340  -31.0200    0.6480 H     201  6FZ201      0.0375
     19  H7       -43.0730  -29.0810    2.5010 H     201  6FZ201      0.0320
     20  H8       -42.4680  -29.3850    1.0530 H     201  6FZ201      0.0320
     21  H        -46.8680  -26.0920   -0.4180 H     201  6FZ201      0.0618
@<TRIPOS>UNITY_ATOM_ATTR
9 1
charge -1
@<TRIPOS>BOND
     1    21    12    1
     2    13     1    1
     3    12     1   ar
     4    12     5   ar
     5     1     2   ar
     6    15     5    1
     7     5     4   ar
     8     2    14    1
     9     2     3   ar
    10    18     7    1
    11    16     6    1
    12     4     3   ar
    13     4     6    1
    14     3     8    1
    15    20     8    1
    16     7     6    1
    17     7     8    1
    18     7    10    1
    19     6    17    1
    20     8    19    1
    21     9    10   ar
    22    10    11   ar
