ZQM
  -OEChem-02242320043D

 28 28  0     0  0  0  0  0  0999 V2000
    0.9610    0.3340   -0.0970 C   0  0  0  0  0  0  0  0  0  0  0  0
   -3.4470    0.2280   -1.1100 C   0  0  0  0  0  0  0  0  0  0  0  0
   -3.0870   -0.4220    0.2280 C   0  0  0  0  0  0  0  0  0  0  0  0
   -4.0500   -1.5770    0.5100 C   0  0  0  0  0  0  0  0  0  0  0  0
   -1.3890   -1.0560    0.1540 S   0  0  0  0  0  0  0  0  0  0  0  0
   -0.4190    0.4140    0.0920 C   0  0  0  0  0  0  0  0  0  0  0  0
   -1.0260    1.6540    0.2300 C   0  0  0  0  0  0  0  0  0  0  0  0
   -0.2620    2.8060    0.1810 C   0  0  0  0  0  0  0  0  0  0  0  0
    1.1050    2.7260   -0.0050 C   0  0  0  0  0  0  0  0  0  0  0  0
    1.7180    1.4940   -0.1440 C   0  0  0  0  0  0  0  0  0  0  0  0
    1.5810   -0.9160   -0.2320 N   0  0  0  0  0  0  0  0  0  0  0  0
    2.9080   -1.0360   -0.0240 C   0  0  0  0  0  0  0  0  0  0  0  0
    3.5230   -2.2120   -0.2600 N   0  0  0  0  0  0  0  0  0  0  0  0
    3.5490   -0.0830    0.3750 O   0  0  0  0  0  0  0  0  0  0  0  0
   -3.4670   -0.5330   -1.8900 H   0  0  0  0  0  0  0  0  0  0  0  0
   -4.4280    0.6960   -1.0340 H   0  0  0  0  0  0  0  0  0  0  0  0
   -2.7020    0.9840   -1.3580 H   0  0  0  0  0  0  0  0  0  0  0  0
   -3.1640    0.3180    1.0240 H   0  0  0  0  0  0  0  0  0  0  0  0
   -3.7940   -2.0390    1.4630 H   0  0  0  0  0  0  0  0  0  0  0  0
   -5.0710   -1.1960    0.5540 H   0  0  0  0  0  0  0  0  0  0  0  0
   -3.9730   -2.3170   -0.2870 H   0  0  0  0  0  0  0  0  0  0  0  0
   -2.0940    1.7190    0.3760 H   0  0  0  0  0  0  0  0  0  0  0  0
   -0.7360    3.7700    0.2890 H   0  0  0  0  0  0  0  0  0  0  0  0
    1.6960    3.6290   -0.0430 H   0  0  0  0  0  0  0  0  0  0  0  0
    2.7870    1.4360   -0.2900 H   0  0  0  0  0  0  0  0  0  0  0  0
    1.0560   -1.6940   -0.4740 H   0  0  0  0  0  0  0  0  0  0  0  0
    3.0110   -2.9720   -0.5790 H   0  0  0  0  0  0  0  0  0  0  0  0
    4.4770   -2.2980   -0.1110 H   0  0  0  0  0  0  0  0  0  0  0  0
 12 14  2  0  0  0  0
 12 13  1  0  0  0  0
 11 12  1  0  0  0  0
  1 11  1  0  0  0  0
  3  4  1  0  0  0  0
  1 10  2  0  0  0  0
  9 10  1  0  0  0  0
  1  6  1  0  0  0  0
  8  9  2  0  0  0  0
  5  6  1  0  0  0  0
  6  7  2  0  0  0  0
  3  5  1  0  0  0  0
  2  3  1  0  0  0  0
  7  8  1  0  0  0  0
  2 15  1  0  0  0  0
  2 16  1  0  0  0  0
  2 17  1  0  0  0  0
  3 18  1  0  0  0  0
  4 19  1  0  0  0  0
  4 20  1  0  0  0  0
  4 21  1  0  0  0  0
  7 22  1  0  0  0  0
  8 23  1  0  0  0  0
  9 24  1  0  0  0  0
 10 25  1  0  0  0  0
 11 26  1  0  0  0  0
 13 27  1  0  0  0  0
 13 28  1  0  0  0  0
M  END
> <OPENEYE_ISO_SMILES>
CC(C)Sc1ccccc1NC(=O)N

> <OPENEYE_INCHI>
InChI=1S/C10H14N2OS/c1-7(2)14-9-6-4-3-5-8(9)12-10(11)13/h3-7H,1-2H3,(H3,11,12,13)

> <OPENEYE_INCHIKEY>
JMNHFNZOQMCQHZ-UHFFFAOYSA-N

> <FORMULA>
C10H14N2OS

$$$$
