FUC
  -OEChem-02242320023D

 23 23  0     1  0  0  0  0  0999 V2000
    1.4100    0.4680   -0.4100 C   0  0  2  0  0  0  0  0  0  0  0  0
    0.1200    0.5130   -1.2330 C   0  0  2  0  0  0  0  0  0  0  0  0
   -0.8310   -0.5760   -0.7280 C   0  0  1  0  0  0  0  0  0  0  0  0
   -1.0160   -0.4020    0.7830 C   0  0  1  0  0  0  0  0  0  0  0  0
    0.3590   -0.3790    1.4540 C   0  0  2  0  0  0  0  0  0  0  0  0
    0.1850   -0.2410    2.9670 C   0  0  0  0  0  0  0  0  0  0  0  0
    2.0070   -0.8230   -0.5350 O   0  0  0  0  0  0  0  0  0  0  0  0
    0.4240    0.2840   -2.6100 O   0  0  0  0  0  0  0  0  0  0  0  0
   -2.0940   -0.4520   -1.3850 O   0  0  0  0  0  0  0  0  0  0  0  0
   -1.7000    0.8240    1.0440 O   0  0  0  0  0  0  0  0  0  0  0  0
    1.1160    0.7240    0.9610 O   0  0  0  0  0  0  0  0  0  0  0  0
    2.1010    1.2250   -0.7800 H   0  0  0  0  0  0  0  0  0  0  0  0
   -0.3500    1.4890   -1.1210 H   0  0  0  0  0  0  0  0  0  0  0  0
   -0.4060   -1.5580   -0.9350 H   0  0  0  0  0  0  0  0  0  0  0  0
   -1.5980   -1.2350    1.1780 H   0  0  0  0  0  0  0  0  0  0  0  0
    0.8860   -1.3070    1.2320 H   0  0  0  0  0  0  0  0  0  0  0  0
    1.1640   -0.2260    3.4460 H   0  0  0  0  0  0  0  0  0  0  0  0
   -0.3410    0.6860    3.1900 H   0  0  0  0  0  0  0  0  0  0  0  0
   -0.3910   -1.0850    3.3450 H   0  0  0  0  0  0  0  0  0  0  0  0
    2.8180   -0.8080   -0.0080 H   0  0  0  0  0  0  0  0  0  0  0  0
    1.0290    0.9860   -2.8840 H   0  0  0  0  0  0  0  0  0  0  0  0
   -1.9280   -0.5550   -2.3320 H   0  0  0  0  0  0  0  0  0  0  0  0
   -1.7940    0.8930    2.0040 H   0  0  0  0  0  0  0  0  0  0  0  0
  1  2  1  0  0  0  0
  1  7  1  0  0  0  0
  1 11  1  0  0  0  0
  1 12  1  0  0  0  0
  2  3  1  0  0  0  0
  2  8  1  0  0  0  0
  2 13  1  0  0  0  0
  3  4  1  0  0  0  0
  3  9  1  0  0  0  0
  3 14  1  0  0  0  0
  4  5  1  0  0  0  0
  4 10  1  0  0  0  0
  4 15  1  0  0  0  0
  5  6  1  0  0  0  0
  5 11  1  0  0  0  0
  5 16  1  0  0  0  0
  6 17  1  0  0  0  0
  6 18  1  0  0  0  0
  6 19  1  0  0  0  0
  7 20  1  0  0  0  0
  8 21  1  0  0  0  0
  9 22  1  0  0  0  0
 10 23  1  0  0  0  0
M  END
> <OPENEYE_ISO_SMILES>
C[C@H]1[C@H]([C@H]([C@@H]([C@@H](O1)O)O)O)O

> <OPENEYE_INCHI>
InChI=1S/C6H12O5/c1-2-3(7)4(8)5(9)6(10)11-2/h2-10H,1H3/t2-,3+,4+,5-,6+/m0/s1

> <OPENEYE_INCHIKEY>
SHZGCJCMOBCMKK-SXUWKVJYSA-N

> <FORMULA>
C6H12O5

$$$$
