RZI
  -OEChem-02242320043D

 33 36  0     0  0  0  0  0  0999 V2000
    3.7880    2.2790    1.2240 C   0  0  0  0  0  0  0  0  0  0  0  0
    3.6640    1.5990   -0.1400 C   0  0  0  0  0  0  0  0  0  0  0  0
    5.0170    1.6400    0.5740 C   0  0  0  0  0  0  0  0  0  0  0  0
    2.9470    0.2750   -0.1960 C   0  0  0  0  0  0  0  0  0  0  0  0
    2.0600   -2.0160   -0.0340 C   0  0  0  0  0  0  0  0  0  0  0  0
    1.3830   -1.1780   -0.8260 C   0  0  0  0  0  0  0  0  0  0  0  0
    0.1480   -1.5920   -1.5820 C   0  0  0  0  0  0  0  0  0  0  0  0
   -1.7480   -0.3140   -0.4970 C   0  0  0  0  0  0  0  0  0  0  0  0
   -2.5520    1.8450   -0.5370 C   0  0  0  0  0  0  0  0  0  0  0  0
   -3.6790    0.3310    0.7990 C   0  0  0  0  0  0  0  0  0  0  0  0
   -2.7700   -0.6650    0.4010 C   0  0  0  0  0  0  0  0  0  0  0  0
   -1.5910   -2.4480    0.0350 C   0  0  0  0  0  0  0  0  0  0  0  0
   -2.4420    3.1400   -1.0180 N   0  0  0  0  0  0  0  0  0  0  0  0
   -3.5320    1.5570    0.3100 N   0  0  0  0  0  0  0  0  0  0  0  0
   -4.7040    0.0400    1.6810 N   0  0  0  0  0  0  0  0  0  0  0  0
   -2.6160   -1.9810    0.6860 N   0  0  0  0  0  0  0  0  0  0  0  0
   -1.0240   -1.4590   -0.7140 N   0  0  0  0  0  0  0  0  0  0  0  0
    1.8850    0.0380   -0.8900 N   0  0  0  0  0  0  0  0  0  0  0  0
   -1.6750    0.9390   -0.9380 N   0  0  0  0  0  0  0  0  0  0  0  0
    3.4250   -1.1340    0.6470 S   0  0  0  0  0  0  0  0  0  0  0  0
    3.7410    3.3680    1.2500 H   0  0  0  0  0  0  0  0  0  0  0  0
    3.3490    1.7690    2.0820 H   0  0  0  0  0  0  0  0  0  0  0  0
    3.5360    2.2400   -1.0130 H   0  0  0  0  0  0  0  0  0  0  0  0
    5.7780    2.3080    0.1720 H   0  0  0  0  0  0  0  0  0  0  0  0
    5.3870    0.7090    1.0050 H   0  0  0  0  0  0  0  0  0  0  0  0
    1.8150   -3.0500    0.1540 H   0  0  0  0  0  0  0  0  0  0  0  0
    0.0260   -0.9520   -2.4570 H   0  0  0  0  0  0  0  0  0  0  0  0
    0.2470   -2.6290   -1.9020 H   0  0  0  0  0  0  0  0  0  0  0  0
   -1.2400   -3.4690    0.0810 H   0  0  0  0  0  0  0  0  0  0  0  0
   -3.0760    3.8170   -0.7350 H   0  0  0  0  0  0  0  0  0  0  0  0
   -1.7320    3.3680   -1.6380 H   0  0  0  0  0  0  0  0  0  0  0  0
   -5.3250    0.7350    1.9490 H   0  0  0  0  0  0  0  0  0  0  0  0
   -4.8020   -0.8590    2.0320 H   0  0  0  0  0  0  0  0  0  0  0  0
  1  3  1  0  0  0  0
  2  3  1  0  0  0  0
  1  2  1  0  0  0  0
  2  4  1  0  0  0  0
  4 18  2  0  0  0  0
  4 20  1  0  0  0  0
  6 18  1  0  0  0  0
  5 20  1  0  0  0  0
  5  6  2  0  0  0  0
  6  7  1  0  0  0  0
  7 17  1  0  0  0  0
 12 17  1  0  0  0  0
 12 16  2  0  0  0  0
  8 17  1  0  0  0  0
 11 16  1  0  0  0  0
  8 11  2  0  0  0  0
  8 19  1  0  0  0  0
 10 11  1  0  0  0  0
  9 19  2  0  0  0  0
 10 14  2  0  0  0  0
 10 15  1  0  0  0  0
  9 14  1  0  0  0  0
  9 13  1  0  0  0  0
  1 21  1  0  0  0  0
  1 22  1  0  0  0  0
  2 23  1  0  0  0  0
  3 24  1  0  0  0  0
  3 25  1  0  0  0  0
  5 26  1  0  0  0  0
  7 27  1  0  0  0  0
  7 28  1  0  0  0  0
 12 29  1  0  0  0  0
 13 30  1  0  0  0  0
 13 31  1  0  0  0  0
 15 32  1  0  0  0  0
 15 33  1  0  0  0  0
M  END
> <OPENEYE_ISO_SMILES>
c1c(nc(s1)C2CC2)Cn3cnc4c3nc(nc4N)N

> <OPENEYE_INCHI>
InChI=1S/C12H13N7S/c13-9-8-10(18-12(14)17-9)19(5-15-8)3-7-4-20-11(16-7)6-1-2-6/h4-6H,1-3H2,(H4,13,14,17,18)

> <OPENEYE_INCHIKEY>
TXIARNZSMRYOQY-UHFFFAOYSA-N

> <FORMULA>
C12H13N7S

$$$$
