SLH
  -OEChem-02242320043D

 67 70  0     1  0  0  0  0  0999 V2000
   -0.8170   -2.0900   -0.5530 C   0  0  0  0  0  0  0  0  0  0  0  0
   -1.5430   -3.2560    0.1270 C   0  0  2  0  0  0  0  0  0  0  0  0
   -1.9090   -4.3020   -0.9280 C   0  0  0  0  0  0  0  0  0  0  0  0
    4.2240   -0.8580   -0.4940 N   0  0  0  0  0  0  0  0  0  0  0  0
   -3.9220   -4.9460    0.4010 C   0  0  0  0  0  0  0  0  0  0  0  0
   -3.5570   -3.9030    1.4590 C   0  0  0  0  0  0  0  0  0  0  0  0
   -1.7380   -0.5200    1.2010 C   0  0  1  0  0  0  0  0  0  0  0  0
   -2.8880    1.9730   -1.3780 C   0  0  2  0  0  0  0  0  0  0  0  0
   -2.3770    4.1690   -0.3450 C   0  0  0  0  0  0  0  0  0  0  0  0
   -3.4230    4.8590    0.1480 C   0  0  0  0  0  0  0  0  0  0  0  0
   -1.8000    5.1000    1.5500 C   0  0  0  0  0  0  0  0  0  0  0  0
   -2.3470    0.2050   -2.8380 O   0  0  0  0  0  0  0  0  0  0  0  0
   -2.9720    1.2270   -2.6850 C   0  0  0  0  0  0  0  0  0  0  0  0
   -2.3460    3.3820   -1.6300 C   0  0  0  0  0  0  0  0  0  0  0  0
   -1.3460    4.3240    0.5420 N   0  0  0  0  0  0  0  0  0  0  0  0
   -3.0410    5.4210    1.3050 N   0  0  0  0  0  0  0  0  0  0  0  0
   -1.9890    1.2580   -0.4630 N   0  0  0  0  0  0  0  0  0  0  0  0
   -2.7060    0.2000    0.2600 C   0  0  0  0  0  0  0  0  0  0  0  0
   -2.4510   -1.7030    1.8640 C   0  0  0  0  0  0  0  0  0  0  0  0
   -2.8180   -2.7380    0.7970 C   0  0  1  0  0  0  0  0  0  0  0  0
   -2.6450   -5.4660   -0.2620 C   0  0  0  0  0  0  0  0  0  0  0  0
   -0.5900   -1.0290    0.4380 N   0  0  0  0  0  0  0  0  0  0  0  0
    0.6460   -0.5330    0.6430 C   0  0  0  0  0  0  0  0  0  0  0  0
    0.8200    0.3420    1.4650 O   0  0  0  0  0  0  0  0  0  0  0  0
    1.8120   -1.0660   -0.1480 C   0  0  0  0  0  0  0  0  0  0  0  0
    3.0900   -0.3390    0.2750 C   0  0  0  0  0  0  0  0  0  0  0  0
    5.5060   -0.3440   -0.2810 C   0  0  0  0  0  0  0  0  0  0  0  0
    6.5820   -0.8340   -1.0100 C   0  0  0  0  0  0  0  0  0  0  0  0
    7.8470   -0.3230   -0.7970 C   0  0  0  0  0  0  0  0  0  0  0  0
    8.0440    0.6750    0.1400 C   0  0  0  0  0  0  0  0  0  0  0  0
    6.9740    1.1650    0.8670 C   0  0  0  0  0  0  0  0  0  0  0  0
    5.7050    0.6630    0.6550 C   0  0  0  0  0  0  0  0  0  0  0  0
    0.1400   -2.4340   -0.9450 H   0  0  0  0  0  0  0  0  0  0  0  0
   -1.4290   -1.7050   -1.3690 H   0  0  0  0  0  0  0  0  0  0  0  0
   -0.8920   -3.7020    0.8780 H   0  0  0  0  0  0  0  0  0  0  0  0
   -2.5530   -3.8480   -1.6820 H   0  0  0  0  0  0  0  0  0  0  0  0
   -1.0000   -4.6720   -1.4030 H   0  0  0  0  0  0  0  0  0  0  0  0
    4.0850   -1.5570   -1.1510 H   0  0  0  0  0  0  0  0  0  0  0  0
   -4.4500   -5.7740    0.8740 H   0  0  0  0  0  0  0  0  0  0  0  0
   -4.5640   -4.4890   -0.3530 H   0  0  0  0  0  0  0  0  0  0  0  0
   -4.4660   -3.5330    1.9340 H   0  0  0  0  0  0  0  0  0  0  0  0
   -2.9140   -4.3590    2.2120 H   0  0  0  0  0  0  0  0  0  0  0  0
   -1.3900    0.1720    1.9670 H   0  0  0  0  0  0  0  0  0  0  0  0
   -3.8810    2.0400   -0.9340 H   0  0  0  0  0  0  0  0  0  0  0  0
   -4.3980    4.9460   -0.3080 H   0  0  0  0  0  0  0  0  0  0  0  0
   -1.2280    5.4090    2.4120 H   0  0  0  0  0  0  0  0  0  0  0  0
   -3.5920    1.6060   -3.4840 H   0  0  0  0  0  0  0  0  0  0  0  0
   -1.3200    3.3170   -1.9920 H   0  0  0  0  0  0  0  0  0  0  0  0
   -2.9640    3.8810   -2.3770 H   0  0  0  0  0  0  0  0  0  0  0  0
   -0.4560    3.9460    0.4620 H   0  0  0  0  0  0  0  0  0  0  0  0
   -1.1930    0.8830   -0.9580 H   0  0  0  0  0  0  0  0  0  0  0  0
   -3.1170   -0.5140   -0.4540 H   0  0  0  0  0  0  0  0  0  0  0  0
   -3.5160    0.6410    0.8400 H   0  0  0  0  0  0  0  0  0  0  0  0
   -1.7900   -2.1590    2.6010 H   0  0  0  0  0  0  0  0  0  0  0  0
   -3.3580   -1.3520    2.3560 H   0  0  0  0  0  0  0  0  0  0  0  0
   -3.4610   -2.2760    0.0480 H   0  0  0  0  0  0  0  0  0  0  0  0
   -2.9040   -6.2110   -1.0150 H   0  0  0  0  0  0  0  0  0  0  0  0
   -2.0020   -5.9190    0.4920 H   0  0  0  0  0  0  0  0  0  0  0  0
    1.9220   -2.1340    0.0410 H   0  0  0  0  0  0  0  0  0  0  0  0
    1.6360   -0.9020   -1.2110 H   0  0  0  0  0  0  0  0  0  0  0  0
    3.2670   -0.5040    1.3380 H   0  0  0  0  0  0  0  0  0  0  0  0
    2.9810    0.7280    0.0860 H   0  0  0  0  0  0  0  0  0  0  0  0
    6.4300   -1.6130   -1.7410 H   0  0  0  0  0  0  0  0  0  0  0  0
    8.6850   -0.7040   -1.3630 H   0  0  0  0  0  0  0  0  0  0  0  0
    9.0350    1.0690    0.3070 H   0  0  0  0  0  0  0  0  0  0  0  0
    7.1310    1.9450    1.5970 H   0  0  0  0  0  0  0  0  0  0  0  0
    4.8710    1.0460    1.2230 H   0  0  0  0  0  0  0  0  0  0  0  0
 30 31  2  0  0  0  0
 29 30  1  0  0  0  0
 31 32  1  0  0  0  0
 28 29  2  0  0  0  0
 27 32  2  0  0  0  0
 27 28  1  0  0  0  0
  4 27  1  0  0  0  0
  4 26  1  0  0  0  0
 25 26  1  0  0  0  0
 10 16  1  0  0  0  0
 11 16  2  0  0  0  0
  9 10  2  0  0  0  0
 23 24  2  0  0  0  0
 23 25  1  0  0  0  0
 11 15  1  0  0  0  0
 22 23  1  0  0  0  0
 12 13  2  0  0  0  0
  9 15  1  0  0  0  0
  9 14  1  0  0  0  0
  8 13  1  0  0  0  0
  8 17  1  0  0  0  0
  8 14  1  0  0  0  0
 17 18  1  0  0  0  0
  7 22  1  0  0  0  0
  1 22  1  0  0  0  0
  7 18  1  0  0  0  0
  7 19  1  0  0  0  0
  1  2  1  0  0  0  0
 19 20  1  0  0  0  0
  2 20  1  0  0  0  0
  2  3  1  0  0  0  0
  6 20  1  0  0  0  0
  3 21  1  0  0  0  0
  5  6  1  0  0  0  0
  5 21  1  0  0  0  0
  1 33  1  0  0  0  0
  1 34  1  0  0  0  0
  2 35  1  0  0  0  0
  3 36  1  0  0  0  0
  3 37  1  0  0  0  0
  4 38  1  0  0  0  0
  5 39  1  0  0  0  0
  5 40  1  0  0  0  0
  6 41  1  0  0  0  0
  6 42  1  0  0  0  0
  7 43  1  0  0  0  0
  8 44  1  0  0  0  0
 10 45  1  0  0  0  0
 11 46  1  0  0  0  0
 13 47  1  0  0  0  0
 14 48  1  0  0  0  0
 14 49  1  0  0  0  0
 15 50  1  0  0  0  0
 17 51  1  0  0  0  0
 18 52  1  0  0  0  0
 18 53  1  0  0  0  0
 19 54  1  0  0  0  0
 19 55  1  0  0  0  0
 20 56  1  0  0  0  0
 21 57  1  0  0  0  0
 21 58  1  0  0  0  0
 25 59  1  0  0  0  0
 25 60  1  0  0  0  0
 26 61  1  0  0  0  0
 26 62  1  0  0  0  0
 28 63  1  0  0  0  0
 29 64  1  0  0  0  0
 30 65  1  0  0  0  0
 31 66  1  0  0  0  0
 32 67  1  0  0  0  0
M  END
> <OPENEYE_ISO_SMILES>
c1ccc(cc1)NCCC(=O)N2C[C@@H]3CCCC[C@H]3C[C@@H]2CN[C@@H](Cc4cnc[nH]4)C=O

> <OPENEYE_INCHI>
InChI=1S/C25H35N5O2/c31-17-23(13-22-14-26-18-29-22)28-15-24-12-19-6-4-5-7-20(19)16-30(24)25(32)10-11-27-21-8-2-1-3-9-21/h1-3,8-9,14,17-20,23-24,27-28H,4-7,10-13,15-16H2,(H,26,29)/t19-,20-,23-,24+/m0/s1

> <OPENEYE_INCHIKEY>
HCMRRQNNHUOUJM-NVXDSCFRSA-N

> <FORMULA>
C25H35N5O2

$$$$
