ALY
  -OEChem-02242320013D

 29 28  0     1  0  0  0  0  0999 V2000
    1.0060   -0.5570    4.7380 O   0  0  0  0  0  0  0  0  0  0  0  0
   -0.0530    0.0070    4.5720 C   0  0  0  0  0  0  0  0  0  0  0  0
   -0.8610    0.4600    5.7610 C   0  0  0  0  0  0  0  0  0  0  0  0
   -0.5090    0.2310    3.3240 N   0  0  0  0  0  0  0  0  0  0  0  0
    0.2750   -0.2080    2.1670 C   0  0  0  0  0  0  0  0  0  0  0  0
   -0.4610    0.1640    0.8790 C   0  0  0  0  0  0  0  0  0  0  0  0
    0.3580   -0.2940   -0.3270 C   0  0  0  0  0  0  0  0  0  0  0  0
   -0.3770    0.0780   -1.6150 C   0  0  0  0  0  0  0  0  0  0  0  0
    0.4420   -0.3810   -2.8230 C   0  0  2  0  0  0  0  0  0  0  0  0
    1.7550    0.2760   -2.8020 N   0  0  0  0  0  0  0  0  0  0  0  0
   -0.2830   -0.0130   -4.0920 C   0  0  0  0  0  0  0  0  0  0  0  0
   -0.0790    1.0560   -4.6160 O   0  0  0  0  0  0  0  0  0  0  0  0
   -1.1550   -0.8730   -4.6400 O   0  0  0  0  0  0  0  0  0  0  0  0
   -0.3360    0.1940    6.6790 H   0  0  0  0  0  0  0  0  0  0  0  0
   -0.9940    1.5410    5.7190 H   0  0  0  0  0  0  0  0  0  0  0  0
   -1.8350   -0.0270    5.7460 H   0  0  0  0  0  0  0  0  0  0  0  0
   -1.3570    0.6830    3.1910 H   0  0  0  0  0  0  0  0  0  0  0  0
    1.2500    0.2780    2.1830 H   0  0  0  0  0  0  0  0  0  0  0  0
    0.4090   -1.2890    2.2090 H   0  0  0  0  0  0  0  0  0  0  0  0
   -1.4350   -0.3220    0.8640 H   0  0  0  0  0  0  0  0  0  0  0  0
   -0.5940    1.2450    0.8370 H   0  0  0  0  0  0  0  0  0  0  0  0
    1.3330    0.1920   -0.3120 H   0  0  0  0  0  0  0  0  0  0  0  0
    0.4920   -1.3750   -0.2850 H   0  0  0  0  0  0  0  0  0  0  0  0
   -1.3520   -0.4090   -1.6310 H   0  0  0  0  0  0  0  0  0  0  0  0
   -0.5110    1.1590   -1.6570 H   0  0  0  0  0  0  0  0  0  0  0  0
    0.5750   -1.4620   -2.7810 H   0  0  0  0  0  0  0  0  0  0  0  0
    1.5830    1.2690   -2.8420 H   0  0  0  0  0  0  0  0  0  0  0  0
    2.1590    0.0880   -1.8960 H   0  0  0  0  0  0  0  0  0  0  0  0
   -1.6200   -0.6370   -5.4540 H   0  0  0  0  0  0  0  0  0  0  0  0
  1  2  2  0  0  0  0
  2  3  1  0  0  0  0
  2  4  1  0  0  0  0
  3 14  1  0  0  0  0
  3 15  1  0  0  0  0
  3 16  1  0  0  0  0
  4  5  1  0  0  0  0
  4 17  1  0  0  0  0
  5  6  1  0  0  0  0
  5 18  1  0  0  0  0
  5 19  1  0  0  0  0
  6  7  1  0  0  0  0
  6 20  1  0  0  0  0
  6 21  1  0  0  0  0
  7  8  1  0  0  0  0
  7 22  1  0  0  0  0
  7 23  1  0  0  0  0
  8  9  1  0  0  0  0
  8 24  1  0  0  0  0
  8 25  1  0  0  0  0
  9 10  1  0  0  0  0
  9 11  1  0  0  0  0
  9 26  1  0  0  0  0
 10 27  1  0  0  0  0
 10 28  1  0  0  0  0
 11 12  2  0  0  0  0
 11 13  1  0  0  0  0
 13 29  1  0  0  0  0
M  END
> <OPENEYE_ISO_SMILES>
CC(=O)NCCCC[C@@H](C(=O)O)N

> <OPENEYE_INCHI>
InChI=1S/C8H16N2O3/c1-6(11)10-5-3-2-4-7(9)8(12)13/h7H,2-5,9H2,1H3,(H,10,11)(H,12,13)/t7-/m0/s1

> <OPENEYE_INCHIKEY>
DTERQYGMUDWYAZ-ZETCQYMHSA-N

> <FORMULA>
C8H16N2O3

$$$$
