WRJ
  -OEChem-02242320043D

 22 23  0     0  0  0  0  0  0999 V2000
    1.9510   -1.5640   -0.1140 C   0  0  0  0  0  0  0  0  0  0  0  0
    3.2700   -1.1650   -0.1650 C   0  0  0  0  0  0  0  0  0  0  0  0
    3.6010    0.1760   -0.0570 C   0  0  0  0  0  0  0  0  0  0  0  0
    2.6160    1.1330    0.1040 C   0  0  0  0  0  0  0  0  0  0  0  0
    1.2880    0.7520    0.1580 C   0  0  0  0  0  0  0  0  0  0  0  0
   -3.1810   -1.4650    0.2120 O   0  0  0  0  0  0  0  0  0  0  0  0
   -2.8210   -0.3220   -0.0010 C   0  0  0  0  0  0  0  0  0  0  0  0
   -3.7360    0.6530   -0.1720 N   0  0  0  0  0  0  0  0  0  0  0  0
   -1.3950   -0.0060   -0.0700 C   0  0  0  0  0  0  0  0  0  0  0  0
   -0.9440    1.4050   -0.3380 C   0  0  0  0  0  0  0  0  0  0  0  0
    0.2980    1.6660    0.3160 O   0  0  0  0  0  0  0  0  0  0  0  0
    0.9490   -0.6070    0.0430 C   0  0  0  0  0  0  0  0  0  0  0  0
   -0.4720   -0.9840    0.1020 C   0  0  0  0  0  0  0  0  0  0  0  0
    1.6950   -2.6100   -0.1980 H   0  0  0  0  0  0  0  0  0  0  0  0
    4.0500   -1.9020   -0.2900 H   0  0  0  0  0  0  0  0  0  0  0  0
    4.6370    0.4770   -0.0980 H   0  0  0  0  0  0  0  0  0  0  0  0
    2.8840    2.1760    0.1880 H   0  0  0  0  0  0  0  0  0  0  0  0
   -4.6820    0.4440   -0.1260 H   0  0  0  0  0  0  0  0  0  0  0  0
   -3.4480    1.5640   -0.3410 H   0  0  0  0  0  0  0  0  0  0  0  0
   -0.8270    1.5480   -1.4120 H   0  0  0  0  0  0  0  0  0  0  0  0
   -1.6940    2.1010    0.0390 H   0  0  0  0  0  0  0  0  0  0  0  0
   -0.7700   -2.0070    0.2800 H   0  0  0  0  0  0  0  0  0  0  0  0
  3  4  2  0  0  0  0
  4  5  1  0  0  0  0
  2  3  1  0  0  0  0
  5 11  1  0  0  0  0
 10 11  1  0  0  0  0
  5 12  2  0  0  0  0
  1  2  2  0  0  0  0
  9 10  1  0  0  0  0
  1 12  1  0  0  0  0
 12 13  1  0  0  0  0
  9 13  2  0  0  0  0
  7  9  1  0  0  0  0
  6  7  2  0  0  0  0
  7  8  1  0  0  0  0
  1 14  1  0  0  0  0
  2 15  1  0  0  0  0
  3 16  1  0  0  0  0
  4 17  1  0  0  0  0
  8 18  1  0  0  0  0
  8 19  1  0  0  0  0
 10 20  1  0  0  0  0
 10 21  1  0  0  0  0
 13 22  1  0  0  0  0
M  END
> <OPENEYE_ISO_SMILES>
c1ccc2c(c1)C=C(CO2)C(=O)N

> <OPENEYE_INCHI>
InChI=1S/C10H9NO2/c11-10(12)8-5-7-3-1-2-4-9(7)13-6-8/h1-5H,6H2,(H2,11,12)

> <OPENEYE_INCHIKEY>
UVEVMKODWDQIAN-UHFFFAOYSA-N

> <FORMULA>
C10H9NO2

$$$$
