YLV
  -OEChem-02242320043D

 62 63  0     1  0  0  0  0  0999 V2000
    4.5750    0.7110    1.9660 C   0  0  2  0  0  0  0  0  0  0  0  0
    4.1220   -0.4670    1.1010 C   0  0  2  0  0  0  0  0  0  0  0  0
    5.3290   -1.0520    0.3630 C   0  0  0  0  0  0  0  0  0  0  0  0
    4.8930   -2.2860   -0.4290 C   0  0  1  0  0  0  0  0  0  0  0  0
    6.0720   -2.8910   -1.1640 C   0  0  0  0  0  0  0  0  0  0  0  0
    5.2600   -4.4070    0.3000 C   0  0  0  0  0  0  0  0  0  0  0  0
    4.4500   -3.3910    0.5070 C   0  0  0  0  0  0  0  0  0  0  0  0
    1.8180   -0.0500    0.4280 C   0  0  0  0  0  0  0  0  0  0  0  0
    0.7980    0.4260   -0.5750 C   0  0  2  0  0  0  0  0  0  0  0  0
    1.0520    1.8990   -0.9010 C   0  0  0  0  0  0  0  0  0  0  0  0
    0.0980    2.3480   -2.0090 C   0  0  0  0  0  0  0  0  0  0  0  0
    0.2650    3.8490   -2.2490 C   0  0  0  0  0  0  0  0  0  0  0  0
    0.4180    1.5870   -3.2970 C   0  0  0  0  0  0  0  0  0  0  0  0
   -1.6080    0.1430   -0.8320 C   0  0  0  0  0  0  0  0  0  0  0  0
   -3.9400   -0.1330   -1.2570 C   0  0  0  0  0  0  0  0  0  0  0  0
   -5.2360   -0.2760   -0.5010 C   0  0  0  0  0  0  0  0  0  0  0  0
   -5.9700    0.8490   -0.1670 C   0  0  0  0  0  0  0  0  0  0  0  0
   -7.1620    0.7190    0.5280 C   0  0  0  0  0  0  0  0  0  0  0  0
   -7.6190   -0.5390    0.8880 C   0  0  0  0  0  0  0  0  0  0  0  0
   -6.8850   -1.6650    0.5530 C   0  0  0  0  0  0  0  0  0  0  0  0
   -5.6950   -1.5330   -0.1470 C   0  0  0  0  0  0  0  0  0  0  0  0
   -5.5230    2.0750   -0.5170 F   0  0  0  0  0  0  0  0  0  0  0  0
   -7.8770    1.8170    0.8550 F   0  0  0  0  0  0  0  0  0  0  0  0
   -8.7810   -0.6670    1.5660 F   0  0  0  0  0  0  0  0  0  0  0  0
   -7.3300   -2.8910    0.9030 F   0  0  0  0  0  0  0  0  0  0  0  0
   -4.9790   -2.6300   -0.4750 F   0  0  0  0  0  0  0  0  0  0  0  0
    6.2100   -4.1370   -0.6680 N   0  0  0  0  0  0  0  0  0  0  0  0
    3.1310   -0.0050    0.1260 N   0  0  0  0  0  0  0  0  0  0  0  0
   -0.5460    0.2750   -0.0130 N   0  0  0  0  0  0  0  0  0  0  0  0
    3.4730    1.1830    2.7430 O   0  0  0  0  0  0  0  0  0  0  0  0
    6.7510   -2.3650   -2.0210 O   0  0  0  0  0  0  0  0  0  0  0  0
   -2.8440    0.0050   -0.3150 O   0  0  0  0  0  0  0  0  0  0  0  0
   -1.4510    0.1490   -2.0360 O   0  0  0  0  0  0  0  0  0  0  0  0
    1.4570   -0.4730    1.5060 O   0  0  0  0  0  0  0  0  0  0  0  0
    5.1790    2.0480    0.8980 S   0  0  0  0  0  0  0  0  0  0  0  0
    5.3760    0.3870    2.6300 H   0  0  0  0  0  0  0  0  0  0  0  0
    3.6780   -1.2340    1.7350 H   0  0  0  0  0  0  0  0  0  0  0  0
    5.7330   -0.3050   -0.3200 H   0  0  0  0  0  0  0  0  0  0  0  0
    6.0940   -1.3350    1.0860 H   0  0  0  0  0  0  0  0  0  0  0  0
    4.0940   -2.0300   -1.1260 H   0  0  0  0  0  0  0  0  0  0  0  0
    5.1910   -5.3480    0.8260 H   0  0  0  0  0  0  0  0  0  0  0  0
    3.6290   -3.3520    1.2090 H   0  0  0  0  0  0  0  0  0  0  0  0
    0.8800   -0.1680   -1.4850 H   0  0  0  0  0  0  0  0  0  0  0  0
    0.8840    2.5030   -0.0100 H   0  0  0  0  0  0  0  0  0  0  0  0
    2.0820    2.0240   -1.2360 H   0  0  0  0  0  0  0  0  0  0  0  0
   -0.9300    2.1400   -1.7100 H   0  0  0  0  0  0  0  0  0  0  0  0
    1.2920    4.0570   -2.5490 H   0  0  0  0  0  0  0  0  0  0  0  0
   -0.4150    4.1690   -3.0390 H   0  0  0  0  0  0  0  0  0  0  0  0
    0.0370    4.3920   -1.3320 H   0  0  0  0  0  0  0  0  0  0  0  0
    0.2990    0.5170   -3.1260 H   0  0  0  0  0  0  0  0  0  0  0  0
   -0.2620    1.9060   -4.0870 H   0  0  0  0  0  0  0  0  0  0  0  0
    1.4450    1.7940   -3.5970 H   0  0  0  0  0  0  0  0  0  0  0  0
   -3.7800   -1.0160   -1.8740 H   0  0  0  0  0  0  0  0  0  0  0  0
   -3.9860    0.7510   -1.8930 H   0  0  0  0  0  0  0  0  0  0  0  0
    6.8910   -4.7650   -0.9540 H   0  0  0  0  0  0  0  0  0  0  0  0
    3.4200    0.3340   -0.7360 H   0  0  0  0  0  0  0  0  0  0  0  0
   -0.6720    0.2700    0.9490 H   0  0  0  0  0  0  0  0  0  0  0  0
    2.7220    1.4880    2.2160 H   0  0  0  0  0  0  0  0  0  0  0  0
    6.3900    1.6670    0.2590 O   0  0  0  0  0  0  0  0  0  0  0  0
    4.1080    2.6180    0.1590 O   0  0  0  0  0  0  0  0  0  0  0  0
    5.5950    3.1470    1.8650 O   0  0  0  0  0  0  0  0  0  0  0  0
    5.9440    3.9390    1.4340 H   0  0  0  0  0  0  0  0  0  0  0  0
 21 26  1  0  0  0  0
 20 25  1  0  0  0  0
  5 31  2  0  0  0  0
 20 21  2  0  0  0  0
 16 21  1  0  0  0  0
 19 20  1  0  0  0  0
 15 16  1  0  0  0  0
 16 17  2  0  0  0  0
 15 32  1  0  0  0  0
 19 24  1  0  0  0  0
 18 19  2  0  0  0  0
  5 27  1  0  0  0  0
  4  5  1  0  0  0  0
  6 27  1  0  0  0  0
 14 33  2  0  0  0  0
 17 18  1  0  0  0  0
 17 22  1  0  0  0  0
 18 23  1  0  0  0  0
 14 32  1  0  0  0  0
 14 29  1  0  0  0  0
  3  4  1  0  0  0  0
  4  7  1  0  0  0  0
  6  7  2  0  0  0  0
  2  3  1  0  0  0  0
 11 12  1  0  0  0  0
  9 29  1  0  0  0  0
  8  9  1  0  0  0  0
  9 10  1  0  0  0  0
  8 28  1  0  0  0  0
  2 28  1  0  0  0  0
  8 34  2  0  0  0  0
  1  2  1  0  0  0  0
 10 11  1  0  0  0  0
 11 13  1  0  0  0  0
  1 30  1  0  0  0  0
  1 35  1  0  0  0  0
  1 36  1  0  0  0  0
  2 37  1  0  0  0  0
  3 38  1  0  0  0  0
  3 39  1  0  0  0  0
  4 40  1  0  0  0  0
  6 41  1  0  0  0  0
  7 42  1  0  0  0  0
  9 43  1  0  0  0  0
 10 44  1  0  0  0  0
 10 45  1  0  0  0  0
 11 46  1  0  0  0  0
 12 47  1  0  0  0  0
 12 48  1  0  0  0  0
 12 49  1  0  0  0  0
 13 50  1  0  0  0  0
 13 51  1  0  0  0  0
 13 52  1  0  0  0  0
 15 53  1  0  0  0  0
 15 54  1  0  0  0  0
 27 55  1  0  0  0  0
 28 56  1  0  0  0  0
 29 57  1  0  0  0  0
 30 58  1  0  0  0  0
 35 59  2  0  0  0  0
 35 60  2  0  0  0  0
 35 61  1  0  0  0  0
 61 62  1  0  0  0  0
M  END
> <OPENEYE_ISO_SMILES>
CC(C)C[C@@H](C(=O)N[C@@H](C[C@@H]1C=CNC1=O)[C@H](O)S(=O)(=O)O)NC(=O)OCc2c(c(c(c(c2F)F)F)F)F

> <OPENEYE_INCHI>
InChI=1S/C21H24F5N3O8S/c1-8(2)5-11(29-21(33)37-7-10-13(22)15(24)17(26)16(25)14(10)23)19(31)28-12(20(32)38(34,35)36)6-9-3-4-27-18(9)30/h3-4,8-9,11-12,20,32H,5-7H2,1-2H3,(H,27,30)(H,28,31)(H,29,33)(H,34,35,36)/t9-,11-,12-,20+/m0/s1

> <OPENEYE_INCHIKEY>
VNVWDEQECYLCMA-AYUSFXAWSA-N

> <FORMULA>
C21H24F5N3O8S

$$$$
