YM1
  -OEChem-02242320043D

 62 63  0     1  0  0  0  0  0999 V2000
   -1.5560    0.3740    0.0980 C   0  0  0  0  0  0  0  0  0  0  0  0
   -0.4270    0.6080    1.0690 C   0  0  2  0  0  0  0  0  0  0  0  0
   -0.5070    2.0370    1.6090 C   0  0  0  0  0  0  0  0  0  0  0  0
   -1.8340    2.2290    2.3470 C   0  0  0  0  0  0  0  0  0  0  0  0
   -1.8490    1.3590    3.6050 C   0  0  0  0  0  0  0  0  0  0  0  0
   -1.9900    3.6990    2.7410 C   0  0  0  0  0  0  0  0  0  0  0  0
    1.9620    0.1320    1.0970 C   0  0  0  0  0  0  0  0  0  0  0  0
    4.3070   -0.2570    1.3100 C   0  0  0  0  0  0  0  0  0  0  0  0
   -4.3940    1.4670   -0.8580 C   0  0  1  0  0  0  0  0  0  0  0  0
   -3.9240    0.0860   -0.3970 C   0  0  2  0  0  0  0  0  0  0  0  0
   -5.0820   -0.6470    0.2830 C   0  0  0  0  0  0  0  0  0  0  0  0
   -4.6250   -2.0470    0.7000 C   0  0  1  0  0  0  0  0  0  0  0  0
   -5.7140   -2.7510    1.4850 C   0  0  0  0  0  0  0  0  0  0  0  0
   -5.2820   -3.9300   -0.3920 C   0  0  0  0  0  0  0  0  0  0  0  0
   -4.4350   -2.9290   -0.5170 C   0  0  0  0  0  0  0  0  0  0  0  0
    5.5470   -0.3020    0.4530 C   0  0  0  0  0  0  0  0  0  0  0  0
    6.2910    0.8470    0.2530 C   0  0  0  0  0  0  0  0  0  0  0  0
    7.4310    0.8060   -0.5350 C   0  0  0  0  0  0  0  0  0  0  0  0
    7.8240   -0.3860   -1.1220 C   0  0  0  0  0  0  0  0  0  0  0  0
    7.0780   -1.5360   -0.9200 C   0  0  0  0  0  0  0  0  0  0  0  0
    5.9420   -1.4950   -0.1280 C   0  0  0  0  0  0  0  0  0  0  0  0
    5.9070    2.0090    0.8250 F   0  0  0  0  0  0  0  0  0  0  0  0
    8.1570    1.9280   -0.7320 F   0  0  0  0  0  0  0  0  0  0  0  0
    8.9320   -0.4260   -1.8940 F   0  0  0  0  0  0  0  0  0  0  0  0
    7.4610   -2.6990   -1.4920 F   0  0  0  0  0  0  0  0  0  0  0  0
    5.2150   -2.6160    0.0700 F   0  0  0  0  0  0  0  0  0  0  0  0
   -6.0340   -3.8440    0.7650 N   0  0  0  0  0  0  0  0  0  0  0  0
   -2.8180    0.2370    0.5510 N   0  0  0  0  0  0  0  0  0  0  0  0
    0.8540    0.4150    0.3850 N   0  0  0  0  0  0  0  0  0  0  0  0
   -3.2820    2.2010   -1.3730 O   0  0  0  0  0  0  0  0  0  0  0  0
   -6.1960   -2.4030    2.5430 O   0  0  0  0  0  0  0  0  0  0  0  0
    3.1570    0.0530    0.4810 O   0  0  0  0  0  0  0  0  0  0  0  0
    1.8840   -0.0540    2.2950 O   0  0  0  0  0  0  0  0  0  0  0  0
   -1.3290    0.3130   -1.0920 O   0  0  0  0  0  0  0  0  0  0  0  0
   -0.5070   -0.0980    1.8950 H   0  0  0  0  0  0  0  0  0  0  0  0
    0.3190    2.2120    2.2970 H   0  0  0  0  0  0  0  0  0  0  0  0
   -0.4470    2.7420    0.7810 H   0  0  0  0  0  0  0  0  0  0  0  0
   -2.6580    1.9390    1.6950 H   0  0  0  0  0  0  0  0  0  0  0  0
   -1.6660    0.3200    3.3310 H   0  0  0  0  0  0  0  0  0  0  0  0
   -1.0700    1.6970    4.2900 H   0  0  0  0  0  0  0  0  0  0  0  0
   -2.8200    1.4410    4.0930 H   0  0  0  0  0  0  0  0  0  0  0  0
   -1.9790    4.3190    1.8450 H   0  0  0  0  0  0  0  0  0  0  0  0
   -2.9350    3.8360    3.2670 H   0  0  0  0  0  0  0  0  0  0  0  0
   -1.1660    3.9900    3.3940 H   0  0  0  0  0  0  0  0  0  0  0  0
    4.1610   -1.2250    1.7880 H   0  0  0  0  0  0  0  0  0  0  0  0
    4.4220    0.5120    2.0740 H   0  0  0  0  0  0  0  0  0  0  0  0
   -4.8250    2.0040   -0.0130 H   0  0  0  0  0  0  0  0  0  0  0  0
   -5.6480    1.2770   -2.1550 S   0  0  0  0  0  0  0  0  0  0  0  0
   -3.5870   -0.4890   -1.2600 H   0  0  0  0  0  0  0  0  0  0  0  0
   -5.3960   -0.0900    1.1660 H   0  0  0  0  0  0  0  0  0  0  0  0
   -5.9180   -0.7290   -0.4110 H   0  0  0  0  0  0  0  0  0  0  0  0
   -3.7060   -1.9910    1.2830 H   0  0  0  0  0  0  0  0  0  0  0  0
   -5.3780   -4.7280   -1.1130 H   0  0  0  0  0  0  0  0  0  0  0  0
   -3.7410   -2.7690   -1.3280 H   0  0  0  0  0  0  0  0  0  0  0  0
   -6.7080   -4.4900    1.0260 H   0  0  0  0  0  0  0  0  0  0  0  0
   -2.9930    0.2400    1.5050 H   0  0  0  0  0  0  0  0  0  0  0  0
    0.9040    0.4930   -0.5810 H   0  0  0  0  0  0  0  0  0  0  0  0
   -2.5720    2.3410   -0.7320 H   0  0  0  0  0  0  0  0  0  0  0  0
   -6.1250    2.5480   -2.5770 O   0  0  0  0  0  0  0  0  0  0  0  0
   -5.2430    0.2960   -3.1000 O   0  0  0  0  0  0  0  0  0  0  0  0
   -6.8370    0.6470   -1.4450 O   0  0  0  0  0  0  0  0  0  0  0  0
   -7.5970    0.4830   -2.0200 H   0  0  0  0  0  0  0  0  0  0  0  0
 19 24  1  0  0  0  0
 20 25  1  0  0  0  0
 19 20  2  0  0  0  0
 18 19  1  0  0  0  0
 18 23  1  0  0  0  0
 20 21  1  0  0  0  0
 17 18  2  0  0  0  0
 21 26  1  0  0  0  0
 16 21  2  0  0  0  0
 16 17  1  0  0  0  0
 17 22  1  0  0  0  0
  8 16  1  0  0  0  0
  8 32  1  0  0  0  0
  7 32  1  0  0  0  0
  7 29  1  0  0  0  0
  7 33  2  0  0  0  0
 14 15  2  0  0  0  0
 14 27  1  0  0  0  0
  2 29  1  0  0  0  0
 12 15  1  0  0  0  0
  1 34  2  0  0  0  0
 13 27  1  0  0  0  0
  1  2  1  0  0  0  0
  2  3  1  0  0  0  0
 12 13  1  0  0  0  0
 11 12  1  0  0  0  0
  1 28  1  0  0  0  0
 13 31  2  0  0  0  0
  3  4  1  0  0  0  0
  4  6  1  0  0  0  0
  4  5  1  0  0  0  0
 10 28  1  0  0  0  0
 10 11  1  0  0  0  0
  9 10  1  0  0  0  0
  9 30  1  0  0  0  0
  2 35  1  0  0  0  0
  3 36  1  0  0  0  0
  3 37  1  0  0  0  0
  4 38  1  0  0  0  0
  5 39  1  0  0  0  0
  5 40  1  0  0  0  0
  5 41  1  0  0  0  0
  6 42  1  0  0  0  0
  6 43  1  0  0  0  0
  6 44  1  0  0  0  0
  8 45  1  0  0  0  0
  8 46  1  0  0  0  0
  9 47  1  0  0  0  0
  9 48  1  0  0  0  0
 10 49  1  0  0  0  0
 11 50  1  0  0  0  0
 11 51  1  0  0  0  0
 12 52  1  0  0  0  0
 14 53  1  0  0  0  0
 15 54  1  0  0  0  0
 27 55  1  0  0  0  0
 28 56  1  0  0  0  0
 29 57  1  0  0  0  0
 30 58  1  0  0  0  0
 48 59  2  0  0  0  0
 48 60  2  0  0  0  0
 48 61  1  0  0  0  0
 61 62  1  0  0  0  0
M  END
> <OPENEYE_ISO_SMILES>
CC(C)C[C@@H](C(=O)N[C@@H](C[C@@H]1C=CNC1=O)[C@@H](O)S(=O)(=O)O)NC(=O)OCc2c(c(c(c(c2F)F)F)F)F

> <OPENEYE_INCHI>
InChI=1S/C21H24F5N3O8S/c1-8(2)5-11(29-21(33)37-7-10-13(22)15(24)17(26)16(25)14(10)23)19(31)28-12(20(32)38(34,35)36)6-9-3-4-27-18(9)30/h3-4,8-9,11-12,20,32H,5-7H2,1-2H3,(H,27,30)(H,28,31)(H,29,33)(H,34,35,36)/t9-,11-,12-,20-/m0/s1

> <OPENEYE_INCHIKEY>
VNVWDEQECYLCMA-JJDHJZHUSA-N

> <FORMULA>
C21H24F5N3O8S

$$$$
