WY7
  -OEChem-02242320043D

 31 34  0     0  0  0  0  0  0999 V2000
    0.5180   -1.1740    0.9510 C   0  0  0  0  0  0  0  0  0  0  0  0
    2.4640   -0.5860    0.1390 C   0  0  0  0  0  0  0  0  0  0  0  0
    4.7040   -0.3700   -1.0060 C   0  0  0  0  0  0  0  0  0  0  0  0
    5.2360    1.6840   -0.3660 C   0  0  0  0  0  0  0  0  0  0  0  0
   -2.5090   -1.7450    0.0250 C   0  0  0  0  0  0  0  0  0  0  0  0
   -3.8810   -0.1910   -0.9990 C   0  0  0  0  0  0  0  0  0  0  0  0
   -3.2650    0.8460   -0.2770 C   0  0  0  0  0  0  0  0  0  0  0  0
   -2.5410    2.6450    0.6600 C   0  0  0  0  0  0  0  0  0  0  0  0
   -2.2290    0.5120    0.6240 C   0  0  0  0  0  0  0  0  0  0  0  0
   -0.8040   -1.1980    1.6740 C   0  0  0  0  0  0  0  0  0  0  0  0
    3.7000    0.1220   -0.2260 C   0  0  0  0  0  0  0  0  0  0  0  0
    5.6840    0.6360   -1.0870 C   0  0  0  0  0  0  0  0  0  0  0  0
    1.4410   -0.1120    0.9210 C   0  0  0  0  0  0  0  0  0  0  0  0
   -4.8910    0.0850   -1.8860 N   0  0  0  0  0  0  0  0  0  0  0  0
   -3.4110    2.1790   -0.2100 N   0  0  0  0  0  0  0  0  0  0  0  0
   -1.8240    1.6500    1.1680 N   0  0  0  0  0  0  0  0  0  0  0  0
   -1.8730   -0.8100    0.7510 N   0  0  0  0  0  0  0  0  0  0  0  0
    1.0320   -2.1360    0.2370 N   0  0  0  0  0  0  0  0  0  0  0  0
   -3.4690   -1.4480   -0.8120 N   0  0  0  0  0  0  0  0  0  0  0  0
    2.1080   -1.8330   -0.2240 O   0  0  0  0  0  0  0  0  0  0  0  0
    4.0380    1.3700    0.1520 O   0  0  0  0  0  0  0  0  0  0  0  0
    4.7420   -1.3460   -1.4690 H   0  0  0  0  0  0  0  0  0  0  0  0
    5.7550    2.6210   -0.2280 H   0  0  0  0  0  0  0  0  0  0  0  0
   -2.2140   -2.7780    0.1340 H   0  0  0  0  0  0  0  0  0  0  0  0
   -2.4270    3.6870    0.9220 H   0  0  0  0  0  0  0  0  0  0  0  0
   -0.9950   -2.2040    2.0490 H   0  0  0  0  0  0  0  0  0  0  0  0
   -0.7740   -0.4990    2.5100 H   0  0  0  0  0  0  0  0  0  0  0  0
    6.6180    0.5800   -1.6260 H   0  0  0  0  0  0  0  0  0  0  0  0
    1.3630    0.8520    1.4020 H   0  0  0  0  0  0  0  0  0  0  0  0
   -5.1850    1.0000   -2.0180 H   0  0  0  0  0  0  0  0  0  0  0  0
   -5.3120   -0.6350   -2.3810 H   0  0  0  0  0  0  0  0  0  0  0  0
  4 21  1  0  0  0  0
  4 12  2  0  0  0  0
 11 21  1  0  0  0  0
  3 12  1  0  0  0  0
  3 11  2  0  0  0  0
  2 11  1  0  0  0  0
  2 20  1  0  0  0  0
 18 20  1  0  0  0  0
  2 13  2  0  0  0  0
  1 18  2  0  0  0  0
  1 13  1  0  0  0  0
  1 10  1  0  0  0  0
 10 17  1  0  0  0  0
  5 17  1  0  0  0  0
  5 19  2  0  0  0  0
  9 17  1  0  0  0  0
  6 19  1  0  0  0  0
  9 16  2  0  0  0  0
  7  9  1  0  0  0  0
  8 16  1  0  0  0  0
  6  7  2  0  0  0  0
  6 14  1  0  0  0  0
  7 15  1  0  0  0  0
  8 15  2  0  0  0  0
  3 22  1  0  0  0  0
  4 23  1  0  0  0  0
  5 24  1  0  0  0  0
  8 25  1  0  0  0  0
 10 26  1  0  0  0  0
 10 27  1  0  0  0  0
 12 28  1  0  0  0  0
 13 29  1  0  0  0  0
 14 30  1  0  0  0  0
 14 31  1  0  0  0  0
M  END
> <OPENEYE_ISO_SMILES>
c1cc(oc1)c2cc(no2)Cn3cnc(c-4ncnc34)N

> <OPENEYE_INCHI>
InChI=1S/C13H10N6O2/c14-12-11-13(16-6-15-11)19(7-17-12)5-8-4-10(21-18-8)9-2-1-3-20-9/h1-4,6-7H,5,14H2

> <OPENEYE_INCHIKEY>
VMYKOOSLEPKKOO-UHFFFAOYSA-N

> <FORMULA>
C13H10N6O2

$$$$
