@<TRIPOS>MOLECULE
/home/pku/3cl/gett_pdb/5SPQ/5SPQ_mol2/ligand/5SPQ_S63.pdb
 37 39 0 0 0
SMALL
GASTEIGER

@<TRIPOS>ATOM
      1  C18      -49.9670  -27.2560   -1.8920 C.ar  201  S63201     -0.0245
      2  C16      -48.6240  -27.2410   -1.4450 C.ar  201  S63201      0.0533
      3  C15      -48.0460  -25.9920   -1.1050 C.ar  201  S63201      0.0406
      4  C14      -48.8280  -24.8540   -1.2180 C.ar  201  S63201      0.1398
      5  C12      -46.8770  -24.1570   -0.4810 C.ar  201  S63201      0.0078
      6  C11      -46.7800  -25.5400   -0.6220 C.ar  201  S63201     -0.0107
      7  C10      -45.5190  -26.4430   -0.2950 C.3   201  S63201      0.0514
      8  C19      -50.6920  -26.0800   -1.9620 C.ar  201  S63201      0.0313
      9  C01      -44.9100  -31.5710    0.5330 C.3   201  S63201     -0.0529
     10  C02      -44.2450  -30.6790    1.6260 C.3   201  S63201      0.0244
     11  C03      -43.8460  -31.4810    2.7670 C.2   201  S63201      0.0492
     12  C06      -43.0510  -29.9310    0.9760 C.3   201  S63201     -0.0252
     13  C07      -43.6580  -28.8980    0.3090 C.3   201  S63201      0.0156
     14  C09      -45.8830  -27.4550    0.8360 C.2   201  S63201      0.2200
     15  C22      -45.2310  -29.5130    2.0130 C.3   201  S63201      0.0252
     16  N08      -45.0200  -28.5780    1.0930 N.am  201  S63201     -0.3003
     17  N13      -48.0990  -23.7840   -0.8430 N.ar  201  S63201     -0.3455
     18  N20      -50.1050  -24.9150   -1.6410 N.ar  201  S63201     -0.2374
     19  O04      -43.1160  -31.0070    3.6580 O.co2 201  S63201     -0.5492
     20  O05      -44.2280  -32.6630    2.8570 O.co2 201  S63201     -0.5492
     21  O21      -46.8860  -27.3160    1.4700 O.2   201  S63201     -0.2752
     22 CL17      -47.7100  -28.7360   -1.3250 Cl    201  S63201     -0.0828
     23 H181      -50.4400  -28.2070   -2.1930 H     201  S63201      0.0647
     24 H121      -46.0940  -23.5060   -0.1380 H     201  S63201      0.0810
     25 H101      -44.6830  -25.8270    0.0410 H     201  S63201      0.0408
     26 H102      -45.2300  -26.9910   -1.1870 H     201  S63201      0.0408
     27 H191      -51.7140  -26.0920   -2.3630 H     201  S63201      0.0831
     28 H013      -45.3870  -30.9290   -0.2170 H     201  S63201      0.0239
     29 H011      -45.6630  -32.2120    1.0000 H     201  S63201      0.0239
     30 H012      -44.1260  -32.1980    0.0490 H     201  S63201      0.0239
     31 H062      -42.3770  -29.5590    1.7260 H     201  S63201      0.0290
     32 H061      -42.5460  -30.5730    0.2850 H     201  S63201      0.0290
     33 H072      -43.8800  -29.2000   -0.6890 H     201  S63201      0.0465
     34 H071      -43.0000  -27.9930    0.3020 H     201  S63201      0.0465
     35 H222      -46.2730  -29.8770    1.9390 H     201  S63201      0.0473
     36 H221      -45.0250  -29.1100    3.0280 H     201  S63201      0.0473
     37 H131      -48.4340  -22.8400   -0.8490 H     201  S63201      0.1668
@<TRIPOS>UNITY_ATOM_ATTR
19 1
charge -1
@<TRIPOS>BOND
     1    27     8    1
     2    23     1    1
     3     8     1   ar
     4     8    18   ar
     5     1     2   ar
     6    18     4   ar
     7     2    22    1
     8     2     3   ar
     9     4     3   ar
    10     4    17   ar
    11    26     7    1
    12     3     6   ar
    13    37    17    1
    14    17     5   ar
    15    33    13    1
    16     6     5   ar
    17     6     7    1
    18     5    24    1
    19     7    25    1
    20     7    14    1
    21    28     9    1
    22    30     9    1
    23    32    12    1
    24    34    13    1
    25    13    12    1
    26    13    16    1
    27     9    29    1
    28     9    10    1
    29    14    16   am
    30    14    21    2
    31    12    10    1
    32    12    31    1
    33    16    15    1
    34    10    15    1
    35    10    11    1
    36    35    15    1
    37    15    36    1
    38    11    20   ar
    39    11    19   ar
