HWH
  -OEChem-02242320023D

 29 30  0     0  0  0  0  0  0999 V2000
   -3.3000    0.0210    0.5160 N   0  0  0  0  0  0  0  0  0  0  0  0
   -1.0880   -0.8530    1.0860 C   0  0  0  0  0  0  0  0  0  0  0  0
    0.2520   -1.2400    0.5150 C   0  0  0  0  0  0  0  0  0  0  0  0
    0.6350   -2.4710    0.1420 C   0  0  0  0  0  0  0  0  0  0  0  0
    2.4040   -1.1480   -0.2740 C   0  0  0  0  0  0  0  0  0  0  0  0
    1.3800   -0.3420    0.2560 C   0  0  0  0  0  0  0  0  0  0  0  0
    2.8000    1.5820    0.0750 C   0  0  0  0  0  0  0  0  0  0  0  0
   -5.6060    0.8830    0.2770 C   0  0  0  0  0  0  0  0  0  0  0  0
    3.8110    0.7850   -0.4490 C   0  0  0  0  0  0  0  0  0  0  0  0
    3.6200   -0.5680   -0.6210 C   0  0  0  0  0  0  0  0  0  0  0  0
   -4.2680    0.4910   -0.2950 C   0  0  0  0  0  0  0  0  0  0  0  0
   -1.9980   -0.3550   -0.0390 C   0  0  0  0  0  0  0  0  0  0  0  0
    1.5890    1.0280    0.4270 C   0  0  0  0  0  0  0  0  0  0  0  0
    3.0050    2.9080    0.2370 F   0  0  0  0  0  0  0  0  0  0  0  0
    1.9190   -2.4360   -0.3300 N   0  0  0  0  0  0  0  0  0  0  0  0
   -4.0630    0.5970   -1.4860 O   0  0  0  0  0  0  0  0  0  0  0  0
   -3.4650   -0.0650    1.4680 H   0  0  0  0  0  0  0  0  0  0  0  0
   -1.5430   -1.7200    1.5640 H   0  0  0  0  0  0  0  0  0  0  0  0
   -0.9540   -0.0610    1.8220 H   0  0  0  0  0  0  0  0  0  0  0  0
    0.0220   -3.3570    0.2060 H   0  0  0  0  0  0  0  0  0  0  0  0
   -5.5860    1.9360    0.5600 H   0  0  0  0  0  0  0  0  0  0  0  0
   -6.3820    0.7230   -0.4720 H   0  0  0  0  0  0  0  0  0  0  0  0
   -5.8180    0.2750    1.1560 H   0  0  0  0  0  0  0  0  0  0  0  0
    4.7560    1.2300   -0.7220 H   0  0  0  0  0  0  0  0  0  0  0  0
    4.4130   -1.1780   -1.0280 H   0  0  0  0  0  0  0  0  0  0  0  0
   -2.1320   -1.1480   -0.7750 H   0  0  0  0  0  0  0  0  0  0  0  0
   -1.5430    0.5120   -0.5170 H   0  0  0  0  0  0  0  0  0  0  0  0
    0.8040    1.6500    0.8330 H   0  0  0  0  0  0  0  0  0  0  0  0
    2.4130   -3.2040   -0.6580 H   0  0  0  0  0  0  0  0  0  0  0  0
  7 14  1  0  0  0  0
  7 13  2  0  0  0  0
  6 13  1  0  0  0  0
  7  9  1  0  0  0  0
  2 12  1  0  0  0  0
  2  3  1  0  0  0  0
  1 12  1  0  0  0  0
  3  6  1  0  0  0  0
  5  6  2  0  0  0  0
  9 10  2  0  0  0  0
  3  4  2  0  0  0  0
  1 11  1  0  0  0  0
  5 10  1  0  0  0  0
  5 15  1  0  0  0  0
  8 11  1  0  0  0  0
 11 16  2  0  0  0  0
  4 15  1  0  0  0  0
  1 17  1  0  0  0  0
  2 18  1  0  0  0  0
  2 19  1  0  0  0  0
  4 20  1  0  0  0  0
  8 21  1  0  0  0  0
  8 22  1  0  0  0  0
  8 23  1  0  0  0  0
  9 24  1  0  0  0  0
 10 25  1  0  0  0  0
 12 26  1  0  0  0  0
 12 27  1  0  0  0  0
 13 28  1  0  0  0  0
 15 29  1  0  0  0  0
M  END
> <OPENEYE_ISO_SMILES>
CC(=O)NCCc1c[nH]c2c1cc(cc2)F

> <OPENEYE_INCHI>
InChI=1S/C12H13FN2O/c1-8(16)14-5-4-9-7-15-12-3-2-10(13)6-11(9)12/h2-3,6-7,15H,4-5H2,1H3,(H,14,16)

> <OPENEYE_INCHIKEY>
UDLASALUJLTGJV-UHFFFAOYSA-N

> <FORMULA>
C12H13FN2O

$$$$
