Y48
  -OEChem-02242320043D

 64 65  0     1  0  0  0  0  0999 V2000
    0.4790   -2.0640   -2.2680 C   0  0  0  0  0  0  0  0  0  0  0  0
   -0.5020   -1.7610   -1.1330 C   0  0  0  0  0  0  0  0  0  0  0  0
   -0.2680   -0.3370   -0.6240 C   0  0  1  0  0  0  0  0  0  0  0  0
    0.3300   -3.5260   -2.6930 C   0  0  0  0  0  0  0  0  0  0  0  0
    0.1780   -1.1530   -3.4600 C   0  0  0  0  0  0  0  0  0  0  0  0
   -1.3110    0.0060    0.4080 C   0  0  0  0  0  0  0  0  0  0  0  0
    5.7580    0.3890   -0.3380 C   0  0  0  0  0  0  0  0  0  0  0  0
    6.9620    0.6200   -0.9820 C   0  0  0  0  0  0  0  0  0  0  0  0
    8.1380    0.6680   -0.2530 C   0  0  0  0  0  0  0  0  0  0  0  0
    4.4790    0.3310   -1.1330 C   0  0  0  0  0  0  0  0  0  0  0  0
    5.7290    0.2050    1.0310 C   0  0  0  0  0  0  0  0  0  0  0  0
    2.1410   -0.0100   -0.7940 C   0  0  0  0  0  0  0  0  0  0  0  0
    6.9040    0.2530    1.7610 C   0  0  0  0  0  0  0  0  0  0  0  0
    8.1110    0.4840    1.1180 C   0  0  0  0  0  0  0  0  0  0  0  0
   -3.6320    0.3230    1.0780 C   0  0  2  0  0  0  0  0  0  0  0  0
   -4.0070   -0.9370    1.8630 C   0  0  1  0  0  0  0  0  0  0  0  0
   -4.8760    0.8770    0.3810 C   0  0  0  0  0  0  0  0  0  0  0  0
   -4.5320    2.2080   -0.2910 C   0  0  2  0  0  0  0  0  0  0  0  0
   -4.1710    3.2730    0.7700 C   0  0  0  0  0  0  0  0  0  0  0  0
   -4.7770    4.5530    0.1520 C   0  0  0  0  0  0  0  0  0  0  0  0
   -5.7470    2.7760   -0.9920 C   0  0  0  0  0  0  0  0  0  0  0  0
    6.8760    0.0730    3.1000 F   0  0  0  0  0  0  0  0  0  0  0  0
    6.9890    0.7990   -2.3210 F   0  0  0  0  0  0  0  0  0  0  0  0
    9.2580    0.5300    1.8290 F   0  0  0  0  0  0  0  0  0  0  0  0
    1.0640   -0.2480   -0.0190 N   0  0  0  0  0  0  0  0  0  0  0  0
   -2.6180   -0.0100    0.0760 N   0  0  0  0  0  0  0  0  0  0  0  0
   -5.8630    4.0900   -0.7200 N   0  0  0  0  0  0  0  0  0  0  0  0
    2.0080    0.1310   -1.9930 O   0  0  0  0  0  0  0  0  0  0  0  0
   -0.9760    0.2960    1.5360 O   0  0  0  0  0  0  0  0  0  0  0  0
   -5.0780   -0.6380    2.7600 O   0  0  0  0  0  0  0  0  0  0  0  0
   -6.5040    2.1410   -1.6950 O   0  0  0  0  0  0  0  0  0  0  0  0
    3.3650    0.0720   -0.2380 O   0  0  0  0  0  0  0  0  0  0  0  0
   -4.5290   -2.2350    0.7090 S   0  0  0  0  0  0  0  0  0  0  0  0
    1.4980   -1.8880   -1.9240 H   0  0  0  0  0  0  0  0  0  0  0  0
   -1.5230   -1.8510   -1.5020 H   0  0  0  0  0  0  0  0  0  0  0  0
   -0.3460   -2.4680   -0.3190 H   0  0  0  0  0  0  0  0  0  0  0  0
   -0.3360    0.3630   -1.4570 H   0  0  0  0  0  0  0  0  0  0  0  0
   -0.6890   -3.7030   -3.0370 H   0  0  0  0  0  0  0  0  0  0  0  0
    1.0280   -3.7430   -3.5010 H   0  0  0  0  0  0  0  0  0  0  0  0
    0.5440   -4.1750   -1.8440 H   0  0  0  0  0  0  0  0  0  0  0  0
    0.2840   -0.1110   -3.1560 H   0  0  0  0  0  0  0  0  0  0  0  0
    0.8770   -1.3690   -4.2680 H   0  0  0  0  0  0  0  0  0  0  0  0
   -0.8410   -1.3290   -3.8030 H   0  0  0  0  0  0  0  0  0  0  0  0
    9.0780    0.8480   -0.7550 H   0  0  0  0  0  0  0  0  0  0  0  0
    4.3230    1.2830   -1.6410 H   0  0  0  0  0  0  0  0  0  0  0  0
    4.5450   -0.4680   -1.8710 H   0  0  0  0  0  0  0  0  0  0  0  0
    4.7900    0.0250    1.5320 H   0  0  0  0  0  0  0  0  0  0  0  0
   -3.2350    1.0720    1.7630 H   0  0  0  0  0  0  0  0  0  0  0  0
   -3.1430   -1.2810    2.4310 H   0  0  0  0  0  0  0  0  0  0  0  0
   -5.2170    0.1680   -0.3730 H   0  0  0  0  0  0  0  0  0  0  0  0
   -5.6650    1.0350    1.1160 H   0  0  0  0  0  0  0  0  0  0  0  0
   -3.7110    2.0780   -0.9960 H   0  0  0  0  0  0  0  0  0  0  0  0
   -4.6380    3.0440    1.7280 H   0  0  0  0  0  0  0  0  0  0  0  0
   -3.0900    3.3650    0.8780 H   0  0  0  0  0  0  0  0  0  0  0  0
   -5.1710    5.2000    0.9350 H   0  0  0  0  0  0  0  0  0  0  0  0
   -4.0230    5.0830   -0.4310 H   0  0  0  0  0  0  0  0  0  0  0  0
    1.1710   -0.3600    0.9380 H   0  0  0  0  0  0  0  0  0  0  0  0
   -2.8860   -0.2430   -0.8270 H   0  0  0  0  0  0  0  0  0  0  0  0
   -6.5720    4.6590   -1.0580 H   0  0  0  0  0  0  0  0  0  0  0  0
   -5.8820   -0.3240    2.3230 H   0  0  0  0  0  0  0  0  0  0  0  0
   -4.9910   -3.3750    1.6040 O   0  0  0  0  0  0  0  0  0  0  0  0
   -5.7020   -1.8390    0.0110 O   0  0  0  0  0  0  0  0  0  0  0  0
   -3.4080   -2.7660    0.0150 O   0  0  0  0  0  0  0  0  0  0  0  0
   -5.3050   -4.1530    1.1210 H   0  0  0  0  0  0  0  0  0  0  0  0
 21 27  1  0  0  0  0
 20 27  1  0  0  0  0
 21 31  2  0  0  0  0
 18 21  1  0  0  0  0
 19 20  1  0  0  0  0
 18 19  1  0  0  0  0
 17 18  1  0  0  0  0
 15 17  1  0  0  0  0
 16 30  1  0  0  0  0
 15 16  1  0  0  0  0
 15 26  1  0  0  0  0
  6 26  1  0  0  0  0
  6 29  2  0  0  0  0
  3  6  1  0  0  0  0
 12 28  2  0  0  0  0
  8 23  1  0  0  0  0
 10 32  1  0  0  0  0
  7 10  1  0  0  0  0
 12 32  1  0  0  0  0
 12 25  1  0  0  0  0
  3 25  1  0  0  0  0
  2  3  1  0  0  0  0
  7  8  2  0  0  0  0
  8  9  1  0  0  0  0
  7 11  1  0  0  0  0
  1  2  1  0  0  0  0
  9 14  2  0  0  0  0
 11 13  2  0  0  0  0
  1  5  1  0  0  0  0
  1  4  1  0  0  0  0
 13 14  1  0  0  0  0
 14 24  1  0  0  0  0
 13 22  1  0  0  0  0
 16 33  1  0  0  0  0
  1 34  1  0  0  0  0
  2 35  1  0  0  0  0
  2 36  1  0  0  0  0
  3 37  1  0  0  0  0
  4 38  1  0  0  0  0
  4 39  1  0  0  0  0
  4 40  1  0  0  0  0
  5 41  1  0  0  0  0
  5 42  1  0  0  0  0
  5 43  1  0  0  0  0
  9 44  1  0  0  0  0
 10 45  1  0  0  0  0
 10 46  1  0  0  0  0
 11 47  1  0  0  0  0
 15 48  1  0  0  0  0
 16 49  1  0  0  0  0
 17 50  1  0  0  0  0
 17 51  1  0  0  0  0
 18 52  1  0  0  0  0
 19 53  1  0  0  0  0
 19 54  1  0  0  0  0
 20 55  1  0  0  0  0
 20 56  1  0  0  0  0
 25 57  1  0  0  0  0
 26 58  1  0  0  0  0
 27 59  1  0  0  0  0
 30 60  1  0  0  0  0
 33 61  1  0  0  0  0
 33 62  2  0  0  0  0
 33 63  2  0  0  0  0
 61 64  1  0  0  0  0
M  END
> <OPENEYE_ISO_SMILES>
CC(C)C[C@@H](C(=O)N[C@@H](C[C@@H]1CCNC1=O)[C@@H](O)S(=O)(=O)O)NC(=O)OCc2cc(c(cc2F)F)F

> <OPENEYE_INCHI>
InChI=1S/C21H28F3N3O8S/c1-10(2)5-16(27-21(31)35-9-12-6-14(23)15(24)8-13(12)22)19(29)26-17(20(30)36(32,33)34)7-11-3-4-25-18(11)28/h6,8,10-11,16-17,20,30H,3-5,7,9H2,1-2H3,(H,25,28)(H,26,29)(H,27,31)(H,32,33,34)/t11-,16-,17-,20-/m0/s1

> <OPENEYE_INCHIKEY>
UQJSPTNSSUFGMT-IREPMIDKSA-N

> <FORMULA>
C21H28F3N3O8S

$$$$
