W2V
  -OEChem-02242320043D

 33 34  0     1  0  0  0  0  0999 V2000
    0.6090    0.8040    0.8570 C   0  0  0  0  0  0  0  0  0  0  0  0
    1.8470    1.3670    1.1080 C   0  0  0  0  0  0  0  0  0  0  0  0
    2.9900    0.7690    0.6170 C   0  0  0  0  0  0  0  0  0  0  0  0
   -0.8380   -0.9680   -0.1570 C   0  0  1  0  0  0  0  0  0  0  0  0
   -1.5810   -1.1780    1.1660 C   0  0  0  0  0  0  0  0  0  0  0  0
   -3.0540   -0.6180   -1.2510 C   0  0  0  0  0  0  0  0  0  0  0  0
   -1.1760    2.3920   -0.9240 O   0  0  0  0  0  0  0  0  0  0  0  0
   -1.7730    1.3200   -0.3790 C   0  0  0  0  0  0  0  0  0  0  0  0
   -2.4030    1.4350    0.6450 O   0  0  0  0  0  0  0  0  0  0  0  0
   -1.6570   -0.0270   -1.0450 C   0  0  1  0  0  0  0  0  0  0  0  0
   -3.6780   -0.8160    0.0200 O   0  0  0  0  0  0  0  0  0  0  0  0
   -2.9810   -1.7250    0.8750 C   0  0  0  0  0  0  0  0  0  0  0  0
    0.5120   -0.3580    0.1150 C   0  0  0  0  0  0  0  0  0  0  0  0
    1.6540   -0.9600   -0.3790 C   0  0  0  0  0  0  0  0  0  0  0  0
    2.8970   -0.3970   -0.1290 C   0  0  0  0  0  0  0  0  0  0  0  0
    4.0210   -0.9880   -0.6130 O   0  0  0  0  0  0  0  0  0  0  0  0
    5.2660   -0.3530   -0.3170 C   0  0  0  0  0  0  0  0  0  0  0  0
   -0.2850    1.2710    1.2460 H   0  0  0  0  0  0  0  0  0  0  0  0
    1.9190    2.2750    1.6880 H   0  0  0  0  0  0  0  0  0  0  0  0
    3.9570    1.2090    0.8120 H   0  0  0  0  0  0  0  0  0  0  0  0
   -0.7110   -1.9270   -0.6600 H   0  0  0  0  0  0  0  0  0  0  0  0
   -1.0330   -1.8900    1.7830 H   0  0  0  0  0  0  0  0  0  0  0  0
   -1.6630   -0.2270    1.6930 H   0  0  0  0  0  0  0  0  0  0  0  0
   -3.6550    0.0690   -1.8470 H   0  0  0  0  0  0  0  0  0  0  0  0
   -2.9720   -1.5730   -1.7690 H   0  0  0  0  0  0  0  0  0  0  0  0
   -1.2790    3.2350   -0.4610 H   0  0  0  0  0  0  0  0  0  0  0  0
   -1.1630    0.0850   -2.0110 H   0  0  0  0  0  0  0  0  0  0  0  0
   -2.8980   -2.6950    0.3850 H   0  0  0  0  0  0  0  0  0  0  0  0
   -3.5300   -1.8360    1.8110 H   0  0  0  0  0  0  0  0  0  0  0  0
    1.5780   -1.8670   -0.9600 H   0  0  0  0  0  0  0  0  0  0  0  0
    5.2660    0.6570   -0.7260 H   0  0  0  0  0  0  0  0  0  0  0  0
    5.4020   -0.3070    0.7640 H   0  0  0  0  0  0  0  0  0  0  0  0
    6.0810   -0.9250   -0.7610 H   0  0  0  0  0  0  0  0  0  0  0  0
  6 11  1  0  0  0  0
  6 10  1  0  0  0  0
 11 12  1  0  0  0  0
  5 12  1  0  0  0  0
  4 10  1  0  0  0  0
  8 10  1  0  0  0  0
  4  5  1  0  0  0  0
  4 13  1  0  0  0  0
  1 13  2  0  0  0  0
  1  2  1  0  0  0  0
 13 14  1  0  0  0  0
  8  9  2  0  0  0  0
  7  8  1  0  0  0  0
  2  3  2  0  0  0  0
 14 15  2  0  0  0  0
  3 15  1  0  0  0  0
 15 16  1  0  0  0  0
 16 17  1  0  0  0  0
  1 18  1  0  0  0  0
  2 19  1  0  0  0  0
  3 20  1  0  0  0  0
  4 21  1  0  0  0  0
  5 22  1  0  0  0  0
  5 23  1  0  0  0  0
  6 24  1  0  0  0  0
  6 25  1  0  0  0  0
  7 26  1  0  0  0  0
 10 27  1  0  0  0  0
 12 28  1  0  0  0  0
 12 29  1  0  0  0  0
 14 30  1  0  0  0  0
 17 31  1  0  0  0  0
 17 32  1  0  0  0  0
 17 33  1  0  0  0  0
M  END
> <OPENEYE_ISO_SMILES>
COc1cccc(c1)[C@H]2CCOC[C@H]2C(=O)O

> <OPENEYE_INCHI>
InChI=1S/C13H16O4/c1-16-10-4-2-3-9(7-10)11-5-6-17-8-12(11)13(14)15/h2-4,7,11-12H,5-6,8H2,1H3,(H,14,15)/t11-,12-/m1/s1

> <OPENEYE_INCHIKEY>
RGWPZWUASAWZRN-VXGBXAGGSA-N

> <FORMULA>
C13H16O4

$$$$
