@<TRIPOS>MOLECULE
/home/pku/3cl/gett_pdb/7JKV/7JKV_mol2/ligand/7JKV_V7G.pdb
 41 45 0 0 0
SMALL
GASTEIGER

@<TRIPOS>ATOM
      1  C02      -18.3040   58.5590   -0.5020 C.3   401  V7G401      0.2174
      2  C03      -19.2130   58.8090   -1.6520 C.ar  401  V7G401      0.1203
      3  C05      -19.8180   59.6740   -3.6450 C.ar  401  V7G401      0.0876
      4  C06      -19.7240   60.3380   -4.8590 C.ar  401  V7G401      0.0196
      5  C07      -20.8330   60.3580   -5.7500 C.ar  401  V7G401      0.0016
      6  C08      -22.0160   59.7340   -5.3500 C.ar  401  V7G401      0.0006
      7  C09      -22.1320   59.0910   -4.1150 C.ar  401  V7G401      0.0080
      8  C10      -21.0090   59.0360   -3.2690 C.ar  401  V7G401      0.0483
      9  C12      -17.9810   59.8270    0.2970 C.3   401  V7G401      0.1324
     10  C13      -17.0160   59.6690    1.4520 C.3   401  V7G401      0.0339
     11  C14      -16.5460   61.0390    1.9440 C.3   401  V7G401      0.0818
     12  C15      -15.7270   61.8320    0.8430 C.3   401  V7G401      0.0326
     13  C16      -14.6310   62.5560    1.6800 C.3   401  V7G401      0.1156
     14  C18      -15.5340   60.9140    3.0940 C.2   401  V7G401      0.2410
     15  C21      -19.6830   61.6600    0.2460 C.2   401  V7G401      0.2613
     16  C22      -21.0630   62.0730    0.7280 C.3   401  V7G401      0.1731
     17  C23      -22.1150   61.7500   -0.3360 C.3   401  V7G401      0.0311
     18  C24      -23.5580   61.9080    0.1560 C.3   401  V7G401      0.0022
     19  C25      -23.9010   60.7430    1.1050 C.3   401  V7G401      0.0001
     20  C26      -24.5020   61.9230   -1.0760 C.3   401  V7G401      0.0001
     21  C28      -20.4550   64.0310    2.0820 C.2   401  V7G401      0.2826
     22  C29      -20.5410   65.4430    2.3180 C.2   401  V7G401      0.1323
     23  C30      -21.1990   66.4520    1.6440 C.2   401  V7G401      0.0108
     24  C31      -20.8310   67.6230    2.2910 C.3   401  V7G401      0.1204
     25  C32      -21.1400   68.9430    2.0560 C.2   401  V7G401      0.1255
     26  C34      -22.3740   70.5620    0.6790 C.3   401  V7G401      0.2520
     27  C35      -20.6580   69.9460    2.8890 C.2   401  V7G401      0.0331
     28  C36      -19.7930   69.6220    3.9700 C.2   401  V7G401      0.0040
     29  C37      -19.4970   68.2600    4.2120 C.2   401  V7G401      0.0155
     30  C38      -20.0050   67.3110    3.3620 C.2   401  V7G401      0.0700
     31  N04      -18.8120   59.5610   -2.7010 N.ar  401  V7G401     -0.2401
     32  N17      -14.4390   61.6490    2.9050 N.am  401  V7G401     -0.2054
     33  N20      -19.2590   60.4580    0.7200 N.am  401  V7G401     -0.2027
     34  N27      -21.0890   63.5150    1.0390 N.am  401  V7G401     -0.1927
     35  N39      -19.8120   65.9780    3.3670 N.2   401  V7G401     -0.2446
     36  O01      -17.1160   57.9840   -0.9530 O.3   401  V7G401     -0.2142
     37  O19      -15.6440   60.1580    4.0650 O.2   401  V7G401     -0.2734
     38  O33      -22.0000   69.1900    1.0220 O.2   401  V7G401     -0.4750
     39  O40      -19.7960   63.2520    2.8450 O.2   401  V7G401     -0.2667
     40  O41      -19.0380   62.3760   -0.5400 O.2   401  V7G401     -0.2715
     41  S11      -20.8550   58.3070   -1.7490 S.2   401  V7G401     -0.0683
@<TRIPOS>BOND
     1     5     6   ar
     2     5     4   ar
     3     6     7   ar
     4     4     3   ar
     5     7     8   ar
     6     3     8   ar
     7     3    31   ar
     8     8    41   ar
     9    31     2   ar
    10    41     2   ar
    11     2     1    1
    12    20    18    1
    13    36     1    1
    14    40    15    2
    15     1     9    1
    16    17    18    1
    17    17    16    1
    18    18    19    1
    19    15    33   am
    20    15    16    1
    21     9    33    1
    22     9    10    1
    23    26    38    1
    24    16    34    1
    25    12    13    1
    26    12    11    1
    27    38    25    1
    28    34    21   am
    29    10    11    1
    30    23    24    1
    31    23    22    2
    32    13    32    1
    33    11    14    1
    34    25    24    1
    35    25    27    2
    36    21    22    1
    37    21    39    2
    38    24    30    1
    39    22    35    1
    40    27    28    1
    41    32    14   am
    42    14    37    2
    43    30    35    2
    44    30    29    1
    45    28    29    2
