QYC
  -OEChem-02242320033D

 50 53  0     1  0  0  0  0  0999 V2000
   -3.3850   -0.9320    0.5990 C   0  0  0  0  0  0  0  0  0  0  0  0
   -1.4340   -1.1810    1.9710 C   0  0  0  0  0  0  0  0  0  0  0  0
   -2.7820   -1.3750    1.7720 C   0  0  0  0  0  0  0  0  0  0  0  0
   -0.6700   -0.5380    0.9930 C   0  0  0  0  0  0  0  0  0  0  0  0
    0.7760   -0.3290    1.2020 C   0  0  0  0  0  0  0  0  0  0  0  0
    2.9460    0.4980    0.4660 C   0  0  1  0  0  0  0  0  0  0  0  0
    3.7240   -0.7160    0.0070 C   0  0  0  0  0  0  0  0  0  0  0  0
    3.4800   -2.0650    0.2040 C   0  0  0  0  0  0  0  0  0  0  0  0
   -5.4790   -0.2100   -0.2570 C   0  0  0  0  0  0  0  0  0  0  0  0
    3.4970    2.9470    0.3690 C   0  0  0  0  0  0  0  0  0  0  0  0
    3.4550    1.6600   -0.4140 C   0  0  1  0  0  0  0  0  0  0  0  0
    4.8790    1.1960   -0.7850 C   0  0  0  0  0  0  0  0  0  0  0  0
    4.8350   -0.3160   -0.7110 C   0  0  0  0  0  0  0  0  0  0  0  0
    5.7000   -1.2690   -1.2340 C   0  0  0  0  0  0  0  0  0  0  0  0
    5.4500   -2.6180   -1.0350 C   0  0  0  0  0  0  0  0  0  0  0  0
    4.3410   -3.0130   -0.3140 C   0  0  0  0  0  0  0  0  0  0  0  0
   -7.6060    0.6430   -1.0840 C   0  0  0  0  0  0  0  0  0  0  0  0
   -8.9260    1.0830   -0.4470 C   0  0  0  0  0  0  0  0  0  0  0  0
   -8.9360    0.1930   -1.6910 C   0  0  0  0  0  0  0  0  0  0  0  0
   -2.6270   -0.2910   -0.3770 C   0  0  0  0  0  0  0  0  0  0  0  0
   -1.2780   -0.0940   -0.1840 C   0  0  0  0  0  0  0  0  0  0  0  0
    1.5110    0.2910    0.2580 N   0  0  0  0  0  0  0  0  0  0  0  0
   -4.7490   -1.1350    0.3980 N   0  0  0  0  0  0  0  0  0  0  0  0
   -6.8130   -0.3610   -0.3710 N   0  0  0  0  0  0  0  0  0  0  0  0
    3.1570    2.9600    1.5290 O   0  0  0  0  0  0  0  0  0  0  0  0
    6.7920   -0.8780   -1.9410 O   0  0  0  0  0  0  0  0  0  0  0  0
   -4.9330    0.7600   -0.7470 O   0  0  0  0  0  0  0  0  0  0  0  0
    1.3040   -0.7170    2.2270 O   0  0  0  0  0  0  0  0  0  0  0  0
    3.9140    4.0780   -0.2210 O   0  0  0  0  0  0  0  0  0  0  0  0
   -0.9660   -1.5260    2.8820 H   0  0  0  0  0  0  0  0  0  0  0  0
   -3.3730   -1.8720    2.5270 H   0  0  0  0  0  0  0  0  0  0  0  0
    3.1500    0.7030    1.5170 H   0  0  0  0  0  0  0  0  0  0  0  0
    2.6120   -2.3780    0.7660 H   0  0  0  0  0  0  0  0  0  0  0  0
    2.8360    1.7710   -1.3050 H   0  0  0  0  0  0  0  0  0  0  0  0
    5.1310    1.5180   -1.7950 H   0  0  0  0  0  0  0  0  0  0  0  0
    5.6030    1.5890   -0.0710 H   0  0  0  0  0  0  0  0  0  0  0  0
    6.1230   -3.3580   -1.4420 H   0  0  0  0  0  0  0  0  0  0  0  0
    4.1450   -4.0640   -0.1570 H   0  0  0  0  0  0  0  0  0  0  0  0
   -7.0340    1.3950   -1.6270 H   0  0  0  0  0  0  0  0  0  0  0  0
   -9.2050    0.6250    0.5020 H   0  0  0  0  0  0  0  0  0  0  0  0
   -9.2220    2.1250   -0.5710 H   0  0  0  0  0  0  0  0  0  0  0  0
   -9.2390    0.6490   -2.6340 H   0  0  0  0  0  0  0  0  0  0  0  0
   -9.2210   -0.8510   -1.5610 H   0  0  0  0  0  0  0  0  0  0  0  0
   -3.0980    0.0520   -1.2860 H   0  0  0  0  0  0  0  0  0  0  0  0
   -0.6910    0.4040   -0.9420 H   0  0  0  0  0  0  0  0  0  0  0  0
    1.0900    0.6000   -0.5590 H   0  0  0  0  0  0  0  0  0  0  0  0
   -5.1740   -1.9410    0.7310 H   0  0  0  0  0  0  0  0  0  0  0  0
   -7.2490   -1.1350    0.0190 H   0  0  0  0  0  0  0  0  0  0  0  0
    7.5830   -0.7420   -1.4010 H   0  0  0  0  0  0  0  0  0  0  0  0
    3.9240    4.8780    0.3220 H   0  0  0  0  0  0  0  0  0  0  0  0
 10 25  2  0  0  0  0
 11 12  1  0  0  0  0
 12 13  1  0  0  0  0
 13 14  2  0  0  0  0
 14 26  1  0  0  0  0
 14 15  1  0  0  0  0
 15 16  2  0  0  0  0
  8 16  1  0  0  0  0
  7  8  2  0  0  0  0
  6  7  1  0  0  0  0
  6 22  1  0  0  0  0
  5 22  1  0  0  0  0
  2  4  2  0  0  0  0
  2  3  1  0  0  0  0
  1  3  2  0  0  0  0
  9 23  1  0  0  0  0
 17 24  1  0  0  0  0
 17 18  1  0  0  0  0
 18 19  1  0  0  0  0
  9 24  1  0  0  0  0
  9 27  2  0  0  0  0
  1 23  1  0  0  0  0
  1 20  1  0  0  0  0
 20 21  2  0  0  0  0
  4  5  1  0  0  0  0
  5 28  2  0  0  0  0
 10 11  1  0  0  0  0
 10 29  1  0  0  0  0
  6 11  1  0  0  0  0
  7 13  1  0  0  0  0
  4 21  1  0  0  0  0
 17 19  1  0  0  0  0
  2 30  1  0  0  0  0
  3 31  1  0  0  0  0
  6 32  1  0  0  0  0
  8 33  1  0  0  0  0
 11 34  1  0  0  0  0
 12 35  1  0  0  0  0
 12 36  1  0  0  0  0
 15 37  1  0  0  0  0
 16 38  1  0  0  0  0
 17 39  1  0  0  0  0
 18 40  1  0  0  0  0
 18 41  1  0  0  0  0
 19 42  1  0  0  0  0
 19 43  1  0  0  0  0
 20 44  1  0  0  0  0
 21 45  1  0  0  0  0
 22 46  1  0  0  0  0
 23 47  1  0  0  0  0
 24 48  1  0  0  0  0
 26 49  1  0  0  0  0
 29 50  1  0  0  0  0
M  END
> <OPENEYE_ISO_SMILES>
c1cc2c(c(c1)O)C[C@@H]([C@H]2NC(=O)c3ccc(cc3)NC(=O)NC4CC4)C(=O)O

> <OPENEYE_INCHI>
InChI=1S/C21H21N3O5/c25-17-3-1-2-14-15(17)10-16(20(27)28)18(14)24-19(26)11-4-6-12(7-5-11)22-21(29)23-13-8-9-13/h1-7,13,16,18,25H,8-10H2,(H,24,26)(H,27,28)(H2,22,23,29)/t16-,18-/m0/s1

> <OPENEYE_INCHIKEY>
HULQKGAWTDMSSA-WMZOPIPTSA-N

> <FORMULA>
C21H21N3O5

$$$$
