3A9
  -OEChem-02242320003D

 20 21  0     0  0  0  0  0  0999 V2000
   -2.6190    0.2730    0.0210 C   0  0  0  0  0  0  0  0  0  0  0  0
   -3.5410   -0.7090    0.0640 O   0  0  0  0  0  0  0  0  0  0  0  0
   -1.1840   -0.0640   -0.0070 C   0  0  0  0  0  0  0  0  0  0  0  0
   -2.9710    1.4360    0.0010 O   0  0  0  0  0  0  0  0  0  0  0  0
   -0.7730   -1.4000    0.0050 C   0  0  0  0  0  0  0  0  0  0  0  0
    2.8830   -0.7920   -0.1080 O   0  0  0  0  0  0  0  0  0  0  0  0
    0.5660   -1.7120   -0.0240 C   0  0  0  0  0  0  0  0  0  0  0  0
    1.5270   -0.7010   -0.0640 C   0  0  0  0  0  0  0  0  0  0  0  0
    3.4570    0.4630    0.2940 C   0  0  0  0  0  0  0  0  0  0  0  0
    2.3640    1.4840   -0.1030 C   0  0  0  0  0  0  0  0  0  0  0  0
    1.1120    0.6290   -0.0710 C   0  0  0  0  0  0  0  0  0  0  0  0
   -0.2220    0.9520   -0.0510 C   0  0  0  0  0  0  0  0  0  0  0  0
   -4.4690   -0.4390    0.0810 H   0  0  0  0  0  0  0  0  0  0  0  0
   -1.5090   -2.1890    0.0380 H   0  0  0  0  0  0  0  0  0  0  0  0
    0.8760   -2.7460   -0.0160 H   0  0  0  0  0  0  0  0  0  0  0  0
    3.6310    0.4810    1.3700 H   0  0  0  0  0  0  0  0  0  0  0  0
    4.3830    0.6550   -0.2490 H   0  0  0  0  0  0  0  0  0  0  0  0
    2.3030    2.2920    0.6260 H   0  0  0  0  0  0  0  0  0  0  0  0
    2.5430    1.8770   -1.1030 H   0  0  0  0  0  0  0  0  0  0  0  0
   -0.5280    1.9870   -0.0650 H   0  0  0  0  0  0  0  0  0  0  0  0
  1  4  2  0  0  0  0
  1  2  1  0  0  0  0
  1  3  1  0  0  0  0
  2 13  1  0  0  0  0
  3  5  2  0  0  0  0
  3 12  1  0  0  0  0
  5  7  1  0  0  0  0
  5 14  1  0  0  0  0
  6  8  1  0  0  0  0
  6  9  1  0  0  0  0
  7  8  2  0  0  0  0
  7 15  1  0  0  0  0
  8 11  1  0  0  0  0
  9 10  1  0  0  0  0
  9 16  1  0  0  0  0
  9 17  1  0  0  0  0
 10 11  1  0  0  0  0
 10 18  1  0  0  0  0
 10 19  1  0  0  0  0
 11 12  2  0  0  0  0
 12 20  1  0  0  0  0
M  END
> <OPENEYE_ISO_SMILES>
c1cc2c(cc1C(=O)O)CCO2

> <OPENEYE_INCHI>
InChI=1S/C9H8O3/c10-9(11)7-1-2-8-6(5-7)3-4-12-8/h1-2,5H,3-4H2,(H,10,11)

> <OPENEYE_INCHIKEY>
YXYOLVAXVPOIMA-UHFFFAOYSA-N

> <FORMULA>
C9H8O3

$$$$
