@<TRIPOS>MOLECULE
/home/pku/3cl/gett_pdb/7O46/7O46_mol2/ligand/7O46_V18.pdb
 24 28 0 0 0
SMALL
GASTEIGER

@<TRIPOS>ATOM
      1  C4        11.3380   -0.1210   23.4620 C.3   401  V18401      0.0043
      2  C14        5.0530    2.5020   19.0090 C.ar  401  V18401      0.0204
      3  C5        12.7320    0.5480   23.4630 C.3   401  V18401      0.0001
      4  C6        13.8790   -0.2070   22.7710 C.3   401  V18401      0.0000
      5  C11        6.8530    1.1320   19.9050 C.ar  401  V18401      0.0813
      6  C7        14.3610   -0.6600   24.1560 C.3   401  V18401      0.0000
      7  C8        13.5350    0.4840   24.7650 C.3   401  V18401      0.0000
      8  C9        10.8210   -0.6200   22.0960 C.3   401  V18401      0.0290
      9  C10        8.9140    0.9030   21.3020 C.2   401  V18401      0.2542
     10  C12        7.2530    0.8660   18.5980 C.ar  401  V18401      0.1142
     11  C13        5.5650    2.1460   17.7380 C.ar  401  V18401      0.0989
     12  N1         8.2950   -0.8370   22.5770 N.am  401  V18401     -0.1824
     13  N2         7.5860    0.5820   21.0130 N.am  401  V18401     -0.1883
     14  C3        10.0760    0.7520   23.6090 C.3   401  V18401      0.0290
     15  N3         6.6080    1.3640   17.5370 N.ar  401  V18401     -0.2410
     16  O1         6.2920   -1.2750   21.5210 O.2   401  V18401     -0.2500
     17  C1         7.2810   -0.5970   21.6980 C.2   401  V18401      0.3332
     18  C2         9.4460    0.0280   22.3900 C.3   401  V18401      0.1491
     19  O2         9.5400    1.7840   20.7440 O.2   401  V18401     -0.2723
     20  C15        3.9290    3.3360   19.1900 C.ar  401  V18401      0.0016
     21  C16        3.4930    3.6320   20.4480 C.ar  401  V18401      0.0001
     22  C17        4.1530    3.1130   21.5760 C.ar  401  V18401      0.0000
     23  C18        5.2490    2.3100   21.4320 C.ar  401  V18401      0.0013
     24  C19        5.7250    1.9790   20.1430 C.ar  401  V18401      0.0172
@<TRIPOS>BOND
     1    15    11   ar
     2    15    10   ar
     3    11     2   ar
     4    10     5   ar
     5     2    20   ar
     6     2    24   ar
     7    20    21   ar
     8     5    24   ar
     9     5    13    1
    10    24    23   ar
    11    21    22   ar
    12    19     9    2
    13    13     9   am
    14    13    17   am
    15     9    18    1
    16    23    22   ar
    17    16    17    2
    18    17    12   am
    19     8    18    1
    20     8     1    1
    21    18    12    1
    22    18    14    1
    23     4     3    1
    24     4     6    1
    25     1     3    1
    26     1    14    1
    27     3     7    1
    28     6     7    1
