@<TRIPOS>MOLECULE
/home/pku/3cl/gett_pdb/5SSI/5SSI_mol2/ligand/5SSI_RQC.pdb
 37 39 0 0 0
SMALL
GASTEIGER

@<TRIPOS>ATOM
      1  C18      -48.8570  -29.0990    4.5750 C.3   201  RQC201      0.0274
      2  C16      -47.5780  -29.4690    6.5200 C.3   201  RQC201     -0.0061
      3  C17      -47.5060  -29.1310    5.2310 C.3   201  RQC201      0.0527
      4  C15      -49.0280  -29.4780    6.9610 C.3   201  RQC201      0.0188
      5  C12      -51.1580  -29.4430    5.5080 C.2   201  RQC201      0.2160
      6  C11      -52.1470  -29.6990    6.6570 C.3   201  RQC201      0.0309
      7  C10      -53.6250  -29.6980    6.3240 C.3   201  RQC201      0.0138
      8  C19      -46.2000  -29.3010    4.3010 C.2   201  RQC201      0.0962
      9  C01      -56.1970  -28.6610   11.2760 C.3   201  RQC201      0.0324
     10  C04      -56.4720  -32.2180   10.6700 C.ar  201  RQC201      0.0639
     11  C05      -55.7490  -31.8800    9.4610 C.ar  201  RQC201      0.1027
     12  C06      -55.2390  -32.6070    8.3120 C.ar  201  RQC201      0.2623
     13  C09      -54.4280  -30.4610    7.4690 C.ar  201  RQC201      0.1125
     14  C23      -55.5410  -30.4910    9.5230 C.ar  201  RQC201      0.1651
     15  N02      -56.1330  -30.0490   10.7330 N.ar  201  RQC201     -0.2493
     16  N03      -56.7000  -31.1140   11.4240 N.ar  201  RQC201     -0.1772
     17  N08      -54.5330  -31.8450    7.2810 N.ar  201  RQC201     -0.3102
     18  N14      -49.8410  -29.3390    5.6660 N.am  201  RQC201     -0.3002
     19  N22      -54.8620  -29.8150    8.5060 N.ar  201  RQC201     -0.2146
     20  O07      -55.3460  -33.8240    8.1300 O.2   201  RQC201     -0.2670
     21  O13      -51.7020  -29.3200    4.4080 O.2   201  RQC201     -0.2756
     22  O20      -45.0550  -29.3770    4.7810 O.co2 201  RQC201     -0.3083
     23  O21      -46.5020  -29.3110    3.1130 O.co2 201  RQC201     -0.8471
     24 H182      -49.0150  -29.8140    3.6740 H     201  RQC201      0.0474
     25 H181      -49.0070  -28.1170    4.0470 H     201  RQC201      0.0474
     26 H161      -46.8370  -29.6910    7.2960 H     201  RQC201      0.0329
     27 H152      -49.3010  -30.3240    7.6960 H     201  RQC201      0.0468
     28 H151      -49.0570  -28.5780    7.6650 H     201  RQC201      0.0468
     29 H111      -52.0130  -28.9380    7.4550 H     201  RQC201      0.0362
     30 H112      -51.8830  -30.6850    7.1080 H     201  RQC201      0.0362
     31 H102      -53.8000  -30.1900    5.3320 H     201  RQC201      0.0348
     32 H101      -53.9660  -28.6450    6.2010 H     201  RQC201      0.0348
     33 H011      -55.7250  -27.8570   10.6460 H     201  RQC201      0.0473
     34 H012      -55.6930  -28.6170   12.2510 H     201  RQC201      0.0473
     35 H013      -57.2430  -28.3640   11.4170 H     201  RQC201      0.0473
     36 H041      -56.8190  -33.1890   10.9990 H     201  RQC201      0.0856
     37 H081      -54.1310  -32.3580    6.4040 H     201  RQC201      0.1700
@<TRIPOS>UNITY_ATOM_ATTR
23 1
charge -1
@<TRIPOS>BOND
     1    23     8   ar
     2    24     1    1
     3    25     1    1
     4     8    22   ar
     5     8     3    1
     6    21     5    2
     7     1     3    1
     8     1    18    1
     9     3     2    1
    10    31     7    1
    11     5    18   am
    12     5     6    1
    13    18     4    1
    14    32     7    1
    15     7     6    1
    16     7    13    1
    17    37    17    1
    18     2     4    1
    19     2    26    1
    20     6    30    1
    21     6    29    1
    22     4    28    1
    23     4    27    1
    24    17    13   ar
    25    17    12   ar
    26    13    19   ar
    27    20    12    2
    28    12    11   ar
    29    19    14   ar
    30    11    14   ar
    31    11    10   ar
    32    14    15   ar
    33    33     9    1
    34    10    36    1
    35    10    16   ar
    36    15     9    1
    37    15    16   ar
    38     9    35    1
    39     9    34    1
