@<TRIPOS>MOLECULE
/home/pku/3cl/gett_pdb/7M91/7M91_mol2/ligand/7M91_YU4.pdb
 51 54 0 0 0
SMALL
GASTEIGER

@<TRIPOS>ATOM
      1  C7         9.5390   -7.0710   20.4250 C.ar  401  YU4401      0.0212
      2  C4         9.4790  -10.2930   17.4000 C.ar  401  YU4401     -0.0416
      3  C5         8.2150  -10.2850   16.8090 C.ar  401  YU4401      0.0277
      4  C6         7.3950   -8.9360   18.4970 C.ar  401  YU4401      0.0514
      5  C1         8.1470   -8.6090   21.5120 C.ar  401  YU4401      0.2635
      6  C2         8.6200   -8.8990   19.1480 C.ar  401  YU4401      0.0675
      7  C10       10.7700   -4.2360   20.4950 C.ar  401  YU4401      0.2617
      8  C14        8.2620   -7.9420   22.7330 C.ar  401  YU4401      0.0477
      9  C15        7.4960   -8.4530   23.9830 C.ar  401  YU4401     -0.0078
     10  C16        7.3740   -9.8060   24.3110 C.ar  401  YU4401     -0.0120
     11  C11       11.4100   -4.9360   22.7110 C.ar  401  YU4401      0.0193
     12  C18        6.6970  -12.5700   24.8160 C.3   401  YU4401      0.0978
     13  C23        6.8580   -7.5310   24.7990 C.ar  401  YU4401     -0.0353
     14  C19        5.4410  -13.4120   24.4920 C.3   401  YU4401      0.0769
     15  C20        4.8490  -13.9670   25.7840 C.3   401  YU4401      0.3932
     16  C21        6.0330   -9.3020   26.2400 C.ar  401  YU4401     -0.0016
     17  C12       12.3840   -3.0810   21.7340 C.ar  401  YU4401      0.3267
     18  C13        9.0530   -6.7870   22.7680 C.ar  401  YU4401     -0.0395
     19  C17        6.6490  -10.2450   25.4430 C.ar  401  YU4401      0.1225
     20  C22        6.1330   -7.9580   25.9100 C.ar  401  YU4401      0.0450
     21  C3         9.6840   -9.5840   18.5780 C.ar  401  YU4401     -0.0348
     22  C8         9.6890   -6.3450   21.6000 C.ar  401  YU4401      0.0060
     23  C9        10.6140   -5.1210   21.5820 C.ar  401  YU4401      0.0640
     24  F1         3.5070  -13.7460   25.7980 F     401  YU4401     -0.1706
     25  F2         5.0700  -15.3130   25.8860 F     401  YU4401     -0.1706
     26  F3         5.4280  -13.3040   26.8300 F     401  YU4401     -0.1706
     27  N1         8.7700   -8.1600   20.3950 N.ar  401  YU4401     -0.2816
     28  N2         7.2040   -9.6060   17.3570 N.ar  401  YU4401     -0.2612
     29  N3        11.6490   -3.2280   20.6190 N.ar  401  YU4401     -0.2746
     30  N4        12.2730   -3.9190   22.7650 N.ar  401  YU4401     -0.3137
     31  O1         7.3710   -9.7600   21.4360 O.2   401  YU4401     -0.2667
     32  O2        10.0310   -4.3230   19.2920 O.2   401  YU4401     -0.2671
     33  O3        13.2880   -2.0200   21.8240 O.2   401  YU4401     -0.2467
     34  O4         6.4980  -11.5980   25.8200 O.3   401  YU4401     -0.4916
     35 CL1         5.3450   -6.7560   26.9560 Cl    401  YU4401     -0.0834
     36  H5         9.9790   -6.7960   19.6530 H     401  YU4401      0.0820
     37  H2        10.1770  -10.7690   17.0100 H     401  YU4401      0.0633
     38  H3         8.0750  -10.7600   16.0210 H     401  YU4401      0.0829
     39  H4         6.6770   -8.4750   18.8700 H     401  YU4401      0.0851
     40  H10        7.7830  -10.4380   23.7670 H     401  YU4401      0.0660
     41  H7        11.3410   -5.5240   23.4290 H     401  YU4401      0.0816
     42  H12        6.9770  -12.1160   24.0050 H     401  YU4401      0.0699
     43  H11        7.3990  -13.1710   25.1090 H     401  YU4401      0.0699
     44  H16        6.9140   -6.6240   24.6030 H     401  YU4401      0.0638
     45  H13        5.6860  -14.1460   23.9080 H     401  YU4401      0.0385
     46  H14        4.7830  -12.8530   24.0500 H     401  YU4401      0.0385
     47  H15        5.5540   -9.5660   26.9920 H     401  YU4401      0.0669
     48  H9         9.1560   -6.3160   23.5630 H     401  YU4401      0.0632
     49  H1        10.5230   -9.5680   18.9780 H     401  YU4401      0.0639
     50  H6        11.7430   -2.6670   19.9730 H     401  YU4401      0.1734
     51  H8        12.7570   -3.8040   23.4670 H     401  YU4401      0.1698
@<TRIPOS>BOND
     1    38     3    1
     2     3    28   ar
     3     3     2   ar
     4    37     2    1
     5    28     4   ar
     6     2    21   ar
     7     4    39    1
     8     4     6   ar
     9    21    49    1
    10    21     6   ar
    11     6    27    1
    12    32     7    2
    13    36     1    1
    14    50    29    1
    15    27     1   ar
    16    27     5   ar
    17     1    22   ar
    18     7    29   ar
    19     7    23   ar
    20    29    17   ar
    21    31     5    2
    22     5     8   ar
    23    23    22    1
    24    23    11   ar
    25    22    18   ar
    26    17    33    2
    27    17    30   ar
    28    11    30   ar
    29    11    41    1
    30     8    18   ar
    31     8     9    1
    32    30    51    1
    33    18    48    1
    34    40    10    1
    35    45    14    1
    36     9    10   ar
    37     9    13   ar
    38    42    12    1
    39    46    14    1
    40    10    19   ar
    41    14    12    1
    42    14    15    1
    43    44    13    1
    44    13    20   ar
    45    12    43    1
    46    12    34    1
    47    19    34    1
    48    19    16   ar
    49    15    24    1
    50    15    25    1
    51    15    26    1
    52    20    16   ar
    53    20    35    1
    54    16    47    1
