@<TRIPOS>MOLECULE
/home/pku/3cl/gett_pdb/7B62/7B62_mol2/ligand/7B62_BLA.pdb
 43 46 0 0 0
SMALL
GASTEIGER

@<TRIPOS>ATOM
      1  CHA       18.7470   13.9080  -18.0330 C.2   1301  BLA1301     0.0371
      2  NA        20.4320   15.3880  -17.0520 N.2   1301  BLA1301    -0.2640
      3  C1A       19.1230   14.9970  -17.2170 C.2   1301  BLA1301     0.0737
      4  C2A       18.3130   15.8990  -16.4650 C.2   1301  BLA1301    -0.0101
      5  C3A       19.1720   16.8290  -15.8590 C.2   1301  BLA1301    -0.0204
      6  C4A       20.4960   16.5040  -16.2470 C.3   1301  BLA1301     0.1445
      7  CMA       18.7610   17.9450  -14.9430 C.3   1301  BLA1301     0.0284
      8  CAA       16.8160   15.9030  -16.3240 C.3   1301  BLA1301     0.0391
      9  CBA       16.2900   14.7160  -15.5430 C.3   1301  BLA1301     0.1187
     10  CGA       16.8470   14.6190  -14.1520 C.2   1301  BLA1301     0.3652
     11  O1A       16.8130   15.5450  -13.3560 O.co2 1301  BLA1301    -0.2456
     12  O2A       17.3700   13.4380  -13.8820 O.co2 1301  BLA1301    -0.2456
     13  CHB       21.6880   17.1960  -15.9750 C.2   1301  BLA1301     0.0181
     14  NB        23.2630   15.4810  -16.6930 N.am  1301  BLA1301    -0.1760
     15  C1B       22.9440   16.7600  -16.3000 C.2   1301  BLA1301     0.0678
     16  C2B       24.1740   17.5210  -16.2890 C.2   1301  BLA1301    -0.0023
     17  C3B       25.1880   16.6990  -16.6700 C.2   1301  BLA1301     0.0527
     18  C4B       24.6090   15.3680  -16.9220 C.2   1301  BLA1301     0.2687
     19  CMB       24.2560   18.9770  -15.9470 C.3   1301  BLA1301     0.0325
     20  OB        25.1760   14.3360  -17.2510 O.2   1301  BLA1301    -0.2680
     21  CAB       26.5970   17.0300  -16.8690 C.2   1301  BLA1301     0.0043
     22  CBB       27.5310   16.2400  -17.3640 C.2   1301  BLA1301     0.0001
     23  NC        22.9080   15.4960  -20.1940 N.am  1301  BLA1301    -0.1797
     24  C1C       23.9210   16.4270  -20.1460 C.2   1301  BLA1301     0.2647
     25  C2C       25.1090   15.7920  -20.6730 C.2   1301  BLA1301     0.0344
     26  C3C       24.8020   14.4900  -20.9980 C.2   1301  BLA1301     0.0121
     27  C4C       23.3660   14.3030  -20.7000 C.2   1301  BLA1301     0.0571
     28  CMC       26.3720   16.5720  -20.8890 C.3   1301  BLA1301     0.0359
     29  OC        23.8140   17.5600  -19.6950 O.2   1301  BLA1301    -0.2684
     30  CAC       25.6460   13.4180  -21.5210 C.2   1301  BLA1301     0.0008
     31  CBC       26.7660   13.5230  -22.1470 C.2   1301  BLA1301     0.0000
     32  CHD       22.5800   13.1760  -20.8800 C.3   1301  BLA1301     0.0886
     33  ND        20.8350   13.7940  -19.2890 N.2   1301  BLA1301    -0.2499
     34  C1D       21.3080   13.0080  -20.2860 C.2   1301  BLA1301     0.0605
     35  C2D       20.3540   11.9690  -20.6260 C.2   1301  BLA1301    -0.0104
     36  C3D       19.2960   12.1230  -19.7580 C.2   1301  BLA1301    -0.0067
     37  C4D       19.5910   13.2990  -18.9540 C.2   1301  BLA1301     0.0782
     38  CMD       20.4850   11.0040  -21.7640 C.3   1301  BLA1301     0.0320
     39  CAD       18.1660   11.1520  -19.5420 C.3   1301  BLA1301     0.0394
     40  CBD       18.5990   10.0270  -18.6140 C.3   1301  BLA1301     0.1188
     41  CGD       17.5290    9.5570  -17.6710 C.2   1301  BLA1301     0.3652
     42  O1D       16.6340   10.2790  -17.2560 O.co2 1301  BLA1301    -0.2456
     43  O2D       17.6770    8.2930  -17.3200 O.co2 1301  BLA1301    -0.2456
@<TRIPOS>BOND
     1    31    30    2
     2    38    35    1
     3    30    26    1
     4    26    27    1
     5    26    25    2
     6    28    25    1
     7    32    27    1
     8    32    34    1
     9    27    23    2
    10    25    24    1
    11    35    34    1
    12    35    36    2
    13    34    33    2
    14    23    24    1
    15    24    29    2
    16    36    39    1
    17    36    37    1
    18    39    40    1
    19    33    37    1
    20    37     1    2
    21    40    41    1
    22     1     3    1
    23    41    43   ar
    24    41    42   ar
    25    22    21    2
    26    20    18    2
    27     3     2    2
    28     3     4    1
    29     2     6    1
    30    18    14   am
    31    18    17    1
    32    21    17    1
    33    14    15    1
    34    17    16    2
    35     4     8    1
    36     4     5    2
    37     8     9    1
    38    15    16    1
    39    15    13    2
    40    16    19    1
    41     6    13    1
    42     6     5    1
    43     5     7    1
    44     9    10    1
    45    10    12   ar
    46    10    11   ar
