LO6
  -OEChem-02242320033D

 30 30  0     1  0  0  0  0  0999 V2000
    0.8640    0.4420    0.4000 N   0  0  0  0  0  0  0  0  0  0  0  0
    2.0650    1.2920    0.4330 C   0  0  0  0  0  0  0  0  0  0  0  0
    3.1300    0.6590   -0.4690 C   0  0  1  0  0  0  0  0  0  0  0  0
    4.4520    1.4130   -0.3050 C   0  0  0  0  0  0  0  0  0  0  0  0
   -0.3520    0.9670    0.1510 C   0  0  0  0  0  0  0  0  0  0  0  0
   -1.5660    0.0760    0.1230 C   0  0  0  0  0  0  0  0  0  0  0  0
    2.4780   -2.9660    0.0940 C   0  0  0  0  0  0  0  0  0  0  0  0
    2.1490   -1.5170   -0.2710 C   0  0  1  0  0  0  0  0  0  0  0  0
    1.0310   -1.0000    0.6420 C   0  0  0  0  0  0  0  0  0  0  0  0
    3.3110   -0.7090   -0.0950 O   0  0  0  0  0  0  0  0  0  0  0  0
   -0.4680    2.1580   -0.0510 O   0  0  0  0  0  0  0  0  0  0  0  0
   -2.7270    0.8610   -0.1600 O   0  0  0  0  0  0  0  0  0  0  0  0
   -3.9400    0.1070   -0.2090 C   0  0  0  0  0  0  0  0  0  0  0  0
   -3.8450   -0.8640   -1.2110 F   0  0  0  0  0  0  0  0  0  0  0  0
   -4.1530   -0.5150    1.0250 F   0  0  0  0  0  0  0  0  0  0  0  0
    1.8190    2.2890    0.0670 H   0  0  0  0  0  0  0  0  0  0  0  0
    2.4400    1.3590    1.4540 H   0  0  0  0  0  0  0  0  0  0  0  0
    2.8060    0.7130   -1.5080 H   0  0  0  0  0  0  0  0  0  0  0  0
    5.2100    0.9590   -0.9430 H   0  0  0  0  0  0  0  0  0  0  0  0
    4.3130    2.4560   -0.5900 H   0  0  0  0  0  0  0  0  0  0  0  0
    4.7730    1.3600    0.7350 H   0  0  0  0  0  0  0  0  0  0  0  0
   -1.4430   -0.6820   -0.6510 H   0  0  0  0  0  0  0  0  0  0  0  0
   -1.6830   -0.4100    1.0910 H   0  0  0  0  0  0  0  0  0  0  0  0
    1.5890   -3.5830   -0.0360 H   0  0  0  0  0  0  0  0  0  0  0  0
    3.2730   -3.3330   -0.5550 H   0  0  0  0  0  0  0  0  0  0  0  0
    2.8060   -3.0140    1.1320 H   0  0  0  0  0  0  0  0  0  0  0  0
    1.8230   -1.4680   -1.3100 H   0  0  0  0  0  0  0  0  0  0  0  0
    1.3000   -1.1700    1.6840 H   0  0  0  0  0  0  0  0  0  0  0  0
    0.1010   -1.5190    0.4130 H   0  0  0  0  0  0  0  0  0  0  0  0
   -4.7730    0.7750   -0.4280 H   0  0  0  0  0  0  0  0  0  0  0  0
  3 10  1  0  0  0  0
  3  4  1  0  0  0  0
  2  3  1  0  0  0  0
  8 10  1  0  0  0  0
  7  8  1  0  0  0  0
  8  9  1  0  0  0  0
  1  2  1  0  0  0  0
  1  9  1  0  0  0  0
  1  5  1  0  0  0  0
  5 11  2  0  0  0  0
  5  6  1  0  0  0  0
  6 12  1  0  0  0  0
 12 13  1  0  0  0  0
 13 14  1  0  0  0  0
 13 15  1  0  0  0  0
  2 16  1  0  0  0  0
  2 17  1  0  0  0  0
  3 18  1  0  0  0  0
  4 19  1  0  0  0  0
  4 20  1  0  0  0  0
  4 21  1  0  0  0  0
  6 22  1  0  0  0  0
  6 23  1  0  0  0  0
  7 24  1  0  0  0  0
  7 25  1  0  0  0  0
  7 26  1  0  0  0  0
  8 27  1  0  0  0  0
  9 28  1  0  0  0  0
  9 29  1  0  0  0  0
 13 30  1  0  0  0  0
M  END
> <OPENEYE_ISO_SMILES>
C[C@@H]1CN(C[C@@H](O1)C)C(=O)COC(F)F

> <OPENEYE_INCHI>
InChI=1S/C9H15F2NO3/c1-6-3-12(4-7(2)15-6)8(13)5-14-9(10)11/h6-7,9H,3-5H2,1-2H3/t6-,7+

> <OPENEYE_INCHIKEY>
KVTKFHLTYQIGCM-KNVOCYPGSA-N

> <FORMULA>
C9H15F2NO3

$$$$
