@<TRIPOS>MOLECULE
/home/pku/3cl/gett_pdb/8DOX/8DOX_mol2/ligand/8DOX_T2L.pdb
 45 49 0 0 0
SMALL
GASTEIGER

@<TRIPOS>ATOM
      1  NBJ        7.3930   -4.1630   22.1000 N.ar  401  T2L401     -0.2378
      2  CBK        7.9540   -4.7800   23.1740 C.ar  401  T2L401      0.1149
      3  CBN        7.3690   -4.9900   24.3890 C.ar  401  T2L401      0.1581
      4  FBS        6.0580   -4.6020   24.6330 F     401  T2L401     -0.2026
      5  CBO        8.0510   -5.6150   25.4410 C.ar  401  T2L401      0.0312
      6  CBP        9.3630   -6.0310   25.2200 C.ar  401  T2L401      0.0029
      7  CBQ        9.9380   -5.8040   23.9680 C.ar  401  T2L401      0.0082
      8  CBL        9.2380   -5.1870   22.9940 C.ar  401  T2L401      0.0505
      9  SBM        9.7850   -4.7640   21.3620 S.2   401  T2L401     -0.0682
     10  CBI        8.1340   -4.0450   20.9820 C.ar  401  T2L401      0.1203
     11  C          7.6140   -3.4150   19.8830 C.3   401  T2L401      0.2174
     12  O          6.5510   -3.8710   19.3800 O.3   401  T2L401     -0.2142
     13  CA         7.6110   -1.8570   20.1280 C.3   401  T2L401      0.1324
     14  CB         7.0880   -1.0820   18.8750 C.3   401  T2L401      0.0339
     15  CG         6.9220    0.4180   19.1880 C.3   401  T2L401      0.0818
     16  CD2        5.8330    0.6880   20.2510 C.3   401  T2L401      0.0326
     17  CAD        5.1870    2.0060   19.8040 C.3   401  T2L401      0.1156
     18  NAE        5.4510    2.0140   18.3050 N.am  401  T2L401     -0.2054
     19  CD1        6.4290    1.1330   18.0390 C.2   401  T2L401      0.2410
     20  OAL        6.8840    0.9820   16.9010 O.2   401  T2L401     -0.2734
     21  N          8.9670   -1.3970   20.4780 N.am  401  T2L401     -0.2027
     22  CAJ        9.2610   -0.8420   21.6690 C.2   401  T2L401      0.2595
     23  OAK        8.4100   -0.6950   22.5550 O.2   401  T2L401     -0.2716
     24  CAM       10.6440   -0.4250   21.8560 C.3   401  T2L401      0.1535
     25  CAQ       11.3150   -1.3410   22.7360 C.3   401  T2L401      0.0289
     26  CBF       12.8110   -1.1440   22.9980 C.3   401  T2L401      0.0037
     27  CBG       13.7170   -0.1200   22.2240 C.3   401  T2L401      0.0001
     28  CBH       13.5560   -2.4120   23.4590 C.3   401  T2L401      0.0001
     29  CAP       11.7660   -0.6070   24.0040 C.3   401  T2L401      0.0220
     30  CAO       11.2250    0.7550   23.9380 C.3   401  T2L401      0.0939
     31  NAN       10.7300    0.8520   22.5590 N.am  401  T2L401     -0.2716
     32  CAR       10.3590    1.9520   21.9380 C.2   401  T2L401      0.2458
     33  OBE        9.9540    1.9270   20.7910 O.2   401  T2L401     -0.2730
     34  CAS       10.3420    3.2760   22.7600 C.3   401  T2L401      0.1714
     35  CBA        8.9340    3.8090   22.9910 C.3   401  T2L401      0.0269
     36  CBC        8.1450    4.1200   21.7200 C.3   401  T2L401      0.0022
     37  CBD        8.9980    5.1080   23.8430 C.3   401  T2L401      0.0022
     38  CBB        8.1450    2.7480   23.7210 C.3   401  T2L401      0.0022
     39  NAT       11.1870    4.1920   22.0630 N.am  401  T2L401     -0.1908
     40  CAU       12.3010    4.6260   22.5940 C.2   401  T2L401      0.3371
     41  OAZ       12.6640    4.3750   23.7500 O.2   401  T2L401     -0.2642
     42  CAV       13.1290    5.5930   21.6600 C.3   401  T2L401      0.4711
     43  FAX       14.3970    5.5950   22.0530 F     401  T2L401     -0.1620
     44  FAY       12.5410    6.7920   21.6960 F     401  T2L401     -0.1620
     45  FAW       13.1670    5.2140   20.5700 F     401  T2L401     -0.1620
@<TRIPOS>BOND
     1    20    19    2
     2    19    18   am
     3    19    15    1
     4    18    17    1
     5    14    15    1
     6    14    13    1
     7    15    16    1
     8    12    11    1
     9    17    16    1
    10    11    13    1
    11    11    10    1
    12    13    21    1
    13    21    22   am
    14    45    42    1
    15    33    32    2
    16    10     9   ar
    17    10     1   ar
    18     9     8   ar
    19    42    44    1
    20    42    43    1
    21    42    40    1
    22    22    24    1
    23    22    23    2
    24    36    35    1
    25    24    31    1
    26    24    25    1
    27    32    31   am
    28    32    34    1
    29    39    40   am
    30    39    34    1
    31     1     2   ar
    32    27    26    1
    33    31    30    1
    34    40    41    2
    35    25    26    1
    36    25    29    1
    37    34    35    1
    38    35    38    1
    39    35    37    1
    40     8     2   ar
    41     8     7   ar
    42    26    28    1
    43    26    29    1
    44     2     3   ar
    45    30    29    1
    46     7     6   ar
    47     3     4    1
    48     3     5   ar
    49     6     5   ar
