@<TRIPOS>MOLECULE
/home/pku/3cl/gett_pdb/7FAY/7FAY_mol2/ligand/7FAY_2XI.pdb
 30 31 0 0 0
SMALL
GASTEIGER

@<TRIPOS>ATOM
      1  C10       -9.9390  -19.0690    3.4020 C.ar  401  2XI401      0.0204
      2  N12      -11.5900  -20.3690    4.5240 N.ar  401  2XI401     -0.2426
      3  C13      -12.0170  -20.9020    3.3780 C.ar  401  2XI401      0.0967
      4  C15      -13.5400  -22.5780   -0.0150 C.ar  401  2XI401      0.0546
      5  C17      -15.9480  -22.5990   -0.2710 C.ar  401  2XI401     -0.0030
      6  C20      -17.0210  -21.7710   -3.4560 C.3   401  2XI401      0.0044
      7  C21      -16.8990  -24.2850   -3.3870 C.3   401  2XI401      0.0044
      8  C22      -18.3640  -23.0810   -1.8220 C.3   401  2XI401      0.0044
      9  C24      -13.4110  -22.7910   -1.3910 C.ar  401  2XI401      0.0146
     10  C26      -12.1820  -24.7590    1.6890 C.3   401  2XI401      0.2280
     11  C01      -13.1860  -18.5620   -2.9170 C.3   401  2XI401      0.0217
     12  C02      -13.6480  -18.5330   -1.4660 C.3   401  2XI401      0.0788
     13  C03      -13.4990  -17.1240   -0.9080 C.3   401  2XI401      0.0217
     14  C04      -15.1120  -18.9840   -1.4340 C.3   401  2XI401      0.0217
     15  C06      -12.9180  -19.9490    0.4870 C.2   401  2XI401      0.2641
     16  C07      -11.8690  -20.9830    0.8540 C.3   401  2XI401      0.1818
     17  C08      -11.3880  -20.5540    2.1850 C.ar  401  2XI401      0.0241
     18  C09      -10.3660  -19.6040    2.1930 C.ar  401  2XI401      0.0010
     19  C11      -10.5790  -19.4850    4.5610 C.ar  401  2XI401      0.0989
     20  C16      -14.8190  -22.5020    0.5340 C.ar  401  2XI401      0.0146
     21  C18      -15.8230  -22.8710   -1.6390 C.ar  401  2XI401     -0.0227
     22  C19      -17.0240  -23.0070   -2.5570 C.3   401  2XI401      0.0189
     23  C23      -14.5430  -22.9270   -2.1890 C.ar  401  2XI401     -0.0030
     24  C25      -11.6210  -23.4130    1.2370 C.2   401  2XI401      0.2604
     25  C27      -12.7020  -25.6050    0.5330 C.3   401  2XI401      0.0456
     26  N05      -12.7550  -19.4280   -0.7410 N.am  401  2XI401     -0.2071
     27  N14      -12.3700  -22.3830    0.7630 N.am  401  2XI401     -0.2459
     28  O28      -11.1120  -25.5460    2.2470 O.3   401  2XI401     -0.2132
     29  O29      -10.4140  -23.2750    1.3100 O.2   401  2XI401     -0.2718
     30  O30      -13.8120  -19.6230    1.2780 O.2   401  2XI401     -0.2712
@<TRIPOS>BOND
     1     6    22    1
     2     7    22    1
     3    11    12    1
     4    22     8    1
     5    22    21    1
     6    23    21   ar
     7    23     9   ar
     8    21     5   ar
     9    12    14    1
    10    12    13    1
    11    12    26    1
    12     9     4   ar
    13    26    15   am
    14     5    20   ar
    15     4    20   ar
    16     4    27    1
    17    15    16    1
    18    15    30    2
    19    25    10    1
    20    27    16    1
    21    27    24   am
    22    16    17    1
    23    24    29    2
    24    24    10    1
    25    10    28    1
    26    17    18   ar
    27    17     3   ar
    28    18     1   ar
    29     3     2   ar
    30     1    19   ar
    31     2    19   ar
