IS5
  -OEChem-02242320023D

 65 67  0     1  0  0  0  0  0999 V2000
   -1.5350    0.7620   -0.0030 C   0  0  2  0  0  0  0  0  0  0  0  0
   -0.4410    2.7310    1.0780 C   0  0  0  0  0  0  0  0  0  0  0  0
   -0.3140    4.2550    1.0520 C   0  0  0  0  0  0  0  0  0  0  0  0
    0.7800    0.0710    0.3090 C   0  0  0  0  0  0  0  0  0  0  0  0
   -0.8610    2.2780    2.4780 C   0  0  0  0  0  0  0  0  0  0  0  0
   -2.6560    0.3260   -0.9110 C   0  0  0  0  0  0  0  0  0  0  0  0
   -5.1900    1.2600   -2.6150 C   0  0  0  0  0  0  0  0  0  0  0  0
   -5.0160    0.2490   -1.5110 C   0  0  2  0  0  0  0  0  0  0  0  0
   -6.3140    0.1440   -0.7060 C   0  0  0  0  0  0  0  0  0  0  0  0
   -6.1670   -0.9450    0.3590 C   0  0  1  0  0  0  0  0  0  0  0  0
   -7.4340   -1.0600    1.1770 C   0  0  0  0  0  0  0  0  0  0  0  0
   -6.8000   -3.2370    0.6740 C   0  0  0  0  0  0  0  0  0  0  0  0
   -6.0170   -2.3340   -0.3050 C   0  0  0  0  0  0  0  0  0  0  0  0
   -1.4960    2.2900    0.0610 C   0  0  0  0  0  0  0  0  0  0  0  0
    3.0300   -0.5690    0.7850 C   0  0  0  0  0  0  0  0  0  0  0  0
    4.2710   -1.0940    0.0600 C   0  0  1  0  0  0  0  0  0  0  0  0
    5.5560   -1.2420    0.8770 C   0  0  1  0  0  0  0  0  0  0  0  0
    4.7770   -2.4860    0.4430 C   0  0  0  0  0  0  0  0  0  0  0  0
    6.8610   -0.9590    0.1780 C   0  0  0  0  0  0  0  0  0  0  0  0
    7.6920    0.0420    0.6450 C   0  0  0  0  0  0  0  0  0  0  0  0
    8.8910    0.3010    0.0030 C   0  0  0  0  0  0  0  0  0  0  0  0
    9.2560   -0.4430   -1.1060 C   0  0  0  0  0  0  0  0  0  0  0  0
    8.4240   -1.4440   -1.5710 C   0  0  0  0  0  0  0  0  0  0  0  0
    7.2290   -1.7050   -0.9260 C   0  0  0  0  0  0  0  0  0  0  0  0
    9.7030    1.2800    0.4580 F   0  0  0  0  0  0  0  0  0  0  0  0
   -7.7680   -2.3520    1.3330 N   0  0  0  0  0  0  0  0  0  0  0  0
   -3.9270    0.6730   -0.6280 N   0  0  0  0  0  0  0  0  0  0  0  0
   -0.2610    0.2620   -0.5250 N   0  0  0  0  0  0  0  0  0  0  0  0
   -4.4780    2.2340   -2.6590 O   0  0  0  0  0  0  0  0  0  0  0  0
   -8.0580   -0.1220    1.6270 O   0  0  0  0  0  0  0  0  0  0  0  0
    1.9520   -0.3880   -0.1710 O   0  0  0  0  0  0  0  0  0  0  0  0
    0.6630    0.3140    1.4940 O   0  0  0  0  0  0  0  0  0  0  0  0
   -2.4140   -0.3370   -1.8980 O   0  0  0  0  0  0  0  0  0  0  0  0
   -1.7010    0.3610    0.9970 H   0  0  0  0  0  0  0  0  0  0  0  0
    0.5190    2.2820    0.8240 H   0  0  0  0  0  0  0  0  0  0  0  0
   -1.2740    4.7050    1.3070 H   0  0  0  0  0  0  0  0  0  0  0  0
    0.4380    4.5690    1.7770 H   0  0  0  0  0  0  0  0  0  0  0  0
   -0.0140    4.5780    0.0550 H   0  0  0  0  0  0  0  0  0  0  0  0
   -0.9520    1.1920    2.4960 H   0  0  0  0  0  0  0  0  0  0  0  0
   -0.1100    2.5920    3.2020 H   0  0  0  0  0  0  0  0  0  0  0  0
   -1.8210    2.7270    2.7320 H   0  0  0  0  0  0  0  0  0  0  0  0
   -5.9520    1.1130   -3.3660 H   0  0  0  0  0  0  0  0  0  0  0  0
   -4.7770   -0.7230   -1.9420 H   0  0  0  0  0  0  0  0  0  0  0  0
   -6.5200    1.0990   -0.2230 H   0  0  0  0  0  0  0  0  0  0  0  0
   -7.1360   -0.1100   -1.3750 H   0  0  0  0  0  0  0  0  0  0  0  0
   -5.3120   -0.7350    1.0020 H   0  0  0  0  0  0  0  0  0  0  0  0
   -7.3190   -4.0240    0.1280 H   0  0  0  0  0  0  0  0  0  0  0  0
   -6.1230   -3.6720    1.4090 H   0  0  0  0  0  0  0  0  0  0  0  0
   -6.4730   -2.3440   -1.2950 H   0  0  0  0  0  0  0  0  0  0  0  0
   -4.9690   -2.6300   -0.3560 H   0  0  0  0  0  0  0  0  0  0  0  0
   -1.2420    2.6880   -0.9210 H   0  0  0  0  0  0  0  0  0  0  0  0
   -2.4730    2.6660    0.3650 H   0  0  0  0  0  0  0  0  0  0  0  0
    2.7240   -1.2870    1.5460 H   0  0  0  0  0  0  0  0  0  0  0  0
    3.2610    0.3850    1.2570 H   0  0  0  0  0  0  0  0  0  0  0  0
    4.3690   -0.7910   -0.9830 H   0  0  0  0  0  0  0  0  0  0  0  0
    5.5180   -0.9650    1.9300 H   0  0  0  0  0  0  0  0  0  0  0  0
    4.2260   -3.0280    1.2110 H   0  0  0  0  0  0  0  0  0  0  0  0
    5.2090   -3.0990   -0.3480 H   0  0  0  0  0  0  0  0  0  0  0  0
    7.4060    0.6220    1.5090 H   0  0  0  0  0  0  0  0  0  0  0  0
   10.1910   -0.2420   -1.6080 H   0  0  0  0  0  0  0  0  0  0  0  0
    8.7090   -2.0250   -2.4360 H   0  0  0  0  0  0  0  0  0  0  0  0
    6.5820   -2.4900   -1.2870 H   0  0  0  0  0  0  0  0  0  0  0  0
   -8.5490   -2.6610    1.8190 H   0  0  0  0  0  0  0  0  0  0  0  0
   -4.1210    1.2030    0.1610 H   0  0  0  0  0  0  0  0  0  0  0  0
   -0.1670    0.0680   -1.4710 H   0  0  0  0  0  0  0  0  0  0  0  0
 17 18  1  0  0  0  0
 16 18  1  0  0  0  0
 11 30  2  0  0  0  0
 16 17  1  0  0  0  0
 17 19  1  0  0  0  0
 15 16  1  0  0  0  0
 19 24  2  0  0  0  0
 23 24  1  0  0  0  0
 11 26  1  0  0  0  0
 10 11  1  0  0  0  0
 15 31  1  0  0  0  0
 19 20  1  0  0  0  0
 22 23  2  0  0  0  0
 12 26  1  0  0  0  0
  4 32  2  0  0  0  0
  4 31  1  0  0  0  0
 20 21  2  0  0  0  0
  9 10  1  0  0  0  0
 10 13  1  0  0  0  0
 21 22  1  0  0  0  0
  4 28  1  0  0  0  0
 21 25  1  0  0  0  0
  2  3  1  0  0  0  0
 12 13  1  0  0  0  0
  8  9  1  0  0  0  0
  1 28  1  0  0  0  0
  1  6  1  0  0  0  0
  1 14  1  0  0  0  0
  6 27  1  0  0  0  0
  8 27  1  0  0  0  0
  2 14  1  0  0  0  0
  2  5  1  0  0  0  0
  6 33  2  0  0  0  0
  7  8  1  0  0  0  0
  7 29  2  0  0  0  0
  1 34  1  0  0  0  0
  2 35  1  0  0  0  0
  3 36  1  0  0  0  0
  3 37  1  0  0  0  0
  3 38  1  0  0  0  0
  5 39  1  0  0  0  0
  5 40  1  0  0  0  0
  5 41  1  0  0  0  0
  7 42  1  0  0  0  0
  8 43  1  0  0  0  0
  9 44  1  0  0  0  0
  9 45  1  0  0  0  0
 10 46  1  0  0  0  0
 12 47  1  0  0  0  0
 12 48  1  0  0  0  0
 13 49  1  0  0  0  0
 13 50  1  0  0  0  0
 14 51  1  0  0  0  0
 14 52  1  0  0  0  0
 15 53  1  0  0  0  0
 15 54  1  0  0  0  0
 16 55  1  0  0  0  0
 17 56  1  0  0  0  0
 18 57  1  0  0  0  0
 18 58  1  0  0  0  0
 20 59  1  0  0  0  0
 22 60  1  0  0  0  0
 23 61  1  0  0  0  0
 24 62  1  0  0  0  0
 26 63  1  0  0  0  0
 27 64  1  0  0  0  0
 28 65  1  0  0  0  0
M  END
> <OPENEYE_ISO_SMILES>
CC(C)C[C@@H](C(=O)N[C@@H](C[C@@H]1CCNC1=O)C=O)NC(=O)OC[C@@H]2C[C@H]2c3cccc(c3)F

> <OPENEYE_INCHI>
InChI=1S/C24H32FN3O5/c1-14(2)8-21(23(31)27-19(12-29)10-16-6-7-26-22(16)30)28-24(32)33-13-17-11-20(17)15-4-3-5-18(25)9-15/h3-5,9,12,14,16-17,19-21H,6-8,10-11,13H2,1-2H3,(H,26,30)(H,27,31)(H,28,32)/t16-,17-,19-,20-,21-/m0/s1

> <OPENEYE_INCHIKEY>
AGVPPNJLOUOQLP-XYYCENQHSA-N

> <FORMULA>
C24H32FN3O5

$$$$
