AOT
  -OEChem-02242320013D

 19 19  0     0  0  0  0  0  0999 V2000
   -0.9980    0.3770    0.0980 C   0  0  0  0  0  0  0  0  0  0  0  0
    0.3530    0.7320    0.1500 N   0  0  0  0  0  0  0  0  0  0  0  0
    0.9830   -1.2910   -0.5100 O   0  0  0  0  0  0  0  0  0  0  0  0
   -1.3940   -0.9060    0.4530 C   0  0  0  0  0  0  0  0  0  0  0  0
    3.0630    1.2650    0.4280 O   0  0  0  0  0  0  0  0  0  0  0  0
    3.6920   -0.7550   -0.2310 O   0  0  0  0  0  0  0  0  0  0  0  0
    2.7440    0.1600    0.0440 C   0  0  0  0  0  0  0  0  0  0  0  0
    1.3010   -0.1850   -0.1250 C   0  0  0  0  0  0  0  0  0  0  0  0
   -2.7300   -1.2530    0.4010 C   0  0  0  0  0  0  0  0  0  0  0  0
   -3.6720   -0.3250   -0.0040 C   0  0  0  0  0  0  0  0  0  0  0  0
   -3.2810    0.9530   -0.3570 C   0  0  0  0  0  0  0  0  0  0  0  0
   -1.9470    1.3090   -0.3020 C   0  0  0  0  0  0  0  0  0  0  0  0
    0.6080    1.6390    0.3840 H   0  0  0  0  0  0  0  0  0  0  0  0
   -0.6590   -1.6310    0.7680 H   0  0  0  0  0  0  0  0  0  0  0  0
    4.6120   -0.4860   -0.1070 H   0  0  0  0  0  0  0  0  0  0  0  0
   -3.0390   -2.2510    0.6760 H   0  0  0  0  0  0  0  0  0  0  0  0
   -4.7160   -0.6000   -0.0440 H   0  0  0  0  0  0  0  0  0  0  0  0
   -4.0190    1.6750   -0.6740 H   0  0  0  0  0  0  0  0  0  0  0  0
   -1.6430    2.3080   -0.5780 H   0  0  0  0  0  0  0  0  0  0  0  0
  5  7  2  0  0  0  0
  6  7  1  0  0  0  0
  7  8  1  0  0  0  0
  3  8  2  0  0  0  0
  2  8  1  0  0  0  0
  1  2  1  0  0  0  0
  1 12  2  0  0  0  0
 11 12  1  0  0  0  0
  1  4  1  0  0  0  0
 10 11  2  0  0  0  0
  4  9  2  0  0  0  0
  9 10  1  0  0  0  0
  2 13  1  0  0  0  0
  4 14  1  0  0  0  0
  6 15  1  0  0  0  0
  9 16  1  0  0  0  0
 10 17  1  0  0  0  0
 11 18  1  0  0  0  0
 12 19  1  0  0  0  0
M  END
> <OPENEYE_ISO_SMILES>
c1ccc(cc1)NC(=O)C(=O)O

> <OPENEYE_INCHI>
InChI=1S/C8H7NO3/c10-7(8(11)12)9-6-4-2-1-3-5-6/h1-5H,(H,9,10)(H,11,12)

> <OPENEYE_INCHIKEY>
PQJZHMCWDKOPQG-UHFFFAOYSA-N

> <FORMULA>
C8H7NO3

$$$$
