RYQ
  -OEChem-02242320043D

 29 31  0     0  0  0  0  0  0999 V2000
   -1.2020   -0.3660   -0.5130 C   0  0  0  0  0  0  0  0  0  0  0  0
    3.2610   -1.1030   -0.5300 C   0  0  0  0  0  0  0  0  0  0  0  0
   -2.4470    1.5710   -0.5780 C   0  0  0  0  0  0  0  0  0  0  0  0
   -3.2800   -0.1690    0.6970 C   0  0  0  0  0  0  0  0  0  0  0  0
    2.9170    2.3670    1.3390 C   0  0  0  0  0  0  0  0  0  0  0  0
    2.9040    1.0650    0.5800 C   0  0  0  0  0  0  0  0  0  0  0  0
    2.0570   -0.5470   -0.7000 C   0  0  0  0  0  0  0  0  0  0  0  0
    0.9690   -1.1930   -1.5180 C   0  0  0  0  0  0  0  0  0  0  0  0
   -0.6180   -2.4280    0.0070 C   0  0  0  0  0  0  0  0  0  0  0  0
   -2.1620   -0.9410    0.3350 C   0  0  0  0  0  0  0  0  0  0  0  0
    1.9000    0.6120   -0.0930 N   0  0  0  0  0  0  0  0  0  0  0  0
   -0.2410   -1.3260   -0.7030 N   0  0  0  0  0  0  0  0  0  0  0  0
   -1.7420   -2.1980    0.6190 N   0  0  0  0  0  0  0  0  0  0  0  0
   -4.2550   -0.6850    1.5310 N   0  0  0  0  0  0  0  0  0  0  0  0
   -3.3780    1.0680    0.2220 N   0  0  0  0  0  0  0  0  0  0  0  0
   -2.5960    2.8660   -1.0470 N   0  0  0  0  0  0  0  0  0  0  0  0
   -1.3800    0.8790   -0.9430 N   0  0  0  0  0  0  0  0  0  0  0  0
    4.2150   -0.0290    0.4910 S   0  0  0  0  0  0  0  0  0  0  0  0
    3.5890   -2.0460   -0.9420 H   0  0  0  0  0  0  0  0  0  0  0  0
    2.5780    2.1950    2.3600 H   0  0  0  0  0  0  0  0  0  0  0  0
    3.9310    2.7680    1.3550 H   0  0  0  0  0  0  0  0  0  0  0  0
    2.2530    3.0790    0.8500 H   0  0  0  0  0  0  0  0  0  0  0  0
    0.7540   -0.5740   -2.3890 H   0  0  0  0  0  0  0  0  0  0  0  0
    1.2980   -2.1790   -1.8460 H   0  0  0  0  0  0  0  0  0  0  0  0
   -0.0630   -3.3540    0.0570 H   0  0  0  0  0  0  0  0  0  0  0  0
   -5.0220   -0.1430    1.7740 H   0  0  0  0  0  0  0  0  0  0  0  0
   -4.1730   -1.5890    1.8720 H   0  0  0  0  0  0  0  0  0  0  0  0
   -3.3720    3.3890   -0.7890 H   0  0  0  0  0  0  0  0  0  0  0  0
   -1.9250    3.2510   -1.6320 H   0  0  0  0  0  0  0  0  0  0  0  0
  5  6  1  0  0  0  0
  6 11  2  0  0  0  0
  6 18  1  0  0  0  0
  7 11  1  0  0  0  0
  2 18  1  0  0  0  0
  2  7  2  0  0  0  0
  7  8  1  0  0  0  0
  8 12  1  0  0  0  0
  9 12  1  0  0  0  0
  9 13  2  0  0  0  0
  1 12  1  0  0  0  0
 10 13  1  0  0  0  0
  1 10  2  0  0  0  0
  1 17  1  0  0  0  0
  4 10  1  0  0  0  0
  3 17  2  0  0  0  0
  4 14  1  0  0  0  0
  4 15  2  0  0  0  0
  3 15  1  0  0  0  0
  3 16  1  0  0  0  0
  2 19  1  0  0  0  0
  5 20  1  0  0  0  0
  5 21  1  0  0  0  0
  5 22  1  0  0  0  0
  8 23  1  0  0  0  0
  8 24  1  0  0  0  0
  9 25  1  0  0  0  0
 14 26  1  0  0  0  0
 14 27  1  0  0  0  0
 16 28  1  0  0  0  0
 16 29  1  0  0  0  0
M  END
> <OPENEYE_ISO_SMILES>
Cc1nc(cs1)Cn2cnc3c2nc(nc3N)N

> <OPENEYE_INCHI>
InChI=1S/C10H11N7S/c1-5-14-6(3-18-5)2-17-4-13-7-8(11)15-10(12)16-9(7)17/h3-4H,2H2,1H3,(H4,11,12,15,16)

> <OPENEYE_INCHIKEY>
INTFUQJSFGYBOV-UHFFFAOYSA-N

> <FORMULA>
C10H11N7S

$$$$
