U88
  -OEChem-02242320043D

 10 10  0     0  0  0  0  0  0999 V2000
    2.3040   -0.0100   -0.0060 C   0  0  0  0  0  0  0  0  0  0  0  0
    0.5160   -1.3350    0.0060 C   0  0  0  0  0  0  0  0  0  0  0  0
   -0.1520   -0.1770    0.0020 C   0  0  0  0  0  0  0  0  0  0  0  0
    1.8280   -1.2090   -0.0030 N   0  0  0  0  0  0  0  0  0  0  0  0
   -1.6240   -0.0210   -0.0010 N   0  3  0  0  0  0  0  0  0  0  0  0
   -2.1180    1.0920   -0.0040 O   0  5  0  0  0  0  0  0  0  0  0  0
   -2.3410   -1.0060   -0.0000 O   0  0  0  0  0  0  0  0  0  0  0  0
    1.0300    1.1300    0.0030 S   0  0  0  0  0  0  0  0  0  0  0  0
    3.3550    0.2380   -0.0090 H   0  0  0  0  0  0  0  0  0  0  0  0
    0.0210   -2.2950    0.0060 H   0  0  0  0  0  0  0  0  0  0  0  0
  2  4  1  0  0  0  0
  1  4  2  0  0  0  0
  2  3  2  0  0  0  0
  1  8  1  0  0  0  0
  3  8  1  0  0  0  0
  3  5  1  0  0  0  0
  5  6  1  0  0  0  0
  5  7  2  0  0  0  0
  1  9  1  0  0  0  0
  2 10  1  0  0  0  0
M  CHG  2   5   1   6  -1
M  END
> <OPENEYE_ISO_SMILES>
c1c(scn1)[N+](=O)[O-]

> <OPENEYE_INCHI>
InChI=1S/C3H2N2O2S/c6-5(7)3-1-4-2-8-3/h1-2H

> <OPENEYE_INCHIKEY>
VVVCJCRUFSIVHI-UHFFFAOYSA-N

> <FORMULA>
C3H2N2O2S

$$$$
