S9U
  -OEChem-02242320043D

 81 83  0     1  0  0  0  0  0999 V2000
    4.2200    2.5960    0.3580 C   0  0  0  0  0  0  0  0  0  0  0  0
    6.2140    3.3430    1.2850 C   0  0  0  0  0  0  0  0  0  0  0  0
    6.4660    3.2500   -0.2360 C   0  0  0  0  0  0  0  0  0  0  0  0
    4.9870   -1.3760   -1.5030 C   0  0  1  0  0  0  0  0  0  0  0  0
    5.2780    2.3770   -0.7010 C   0  0  1  0  0  0  0  0  0  0  0  0
    5.6860    0.9030   -0.7540 C   0  0  0  0  0  0  0  0  0  0  0  0
    4.5360    0.0770   -1.3340 C   0  0  2  0  0  0  0  0  0  0  0  0
   -1.4440    0.2190   -0.2560 C   0  0  0  0  0  0  0  0  0  0  0  0
    0.9640   -0.0130    0.0380 C   0  0  1  0  0  0  0  0  0  0  0  0
    1.1200   -1.0850    1.1190 C   0  0  0  0  0  0  0  0  0  0  0  0
   -0.0110   -0.9490    2.1400 C   0  0  0  0  0  0  0  0  0  0  0  0
    0.0730   -2.0950    3.1490 C   0  0  0  0  0  0  0  0  0  0  0  0
    0.1210    0.3870    2.8730 C   0  0  0  0  0  0  0  0  0  0  0  0
    2.1430   -0.0670   -0.8980 C   0  0  0  0  0  0  0  0  0  0  0  0
   -3.8060    0.5360   -0.3940 C   0  0  0  0  0  0  0  0  0  0  0  0
   -4.9770    0.1840   -1.3130 C   0  0  1  0  0  0  0  0  0  0  0  0
   -6.3830    0.5650   -0.8420 C   0  0  2  0  0  0  0  0  0  0  0  0
   -7.5290   -0.3820   -1.2030 C   0  0  0  0  0  0  0  0  0  0  0  0
   -8.8200    0.1050   -0.5420 C   0  0  0  0  0  0  0  0  0  0  0  0
   -9.9890   -0.7680   -1.0020 C   0  0  0  0  0  0  0  0  0  0  0  0
  -11.2800   -0.2810   -0.3400 C   0  0  0  0  0  0  0  0  0  0  0  0
  -11.1410   -0.3750    1.1800 C   0  0  0  0  0  0  0  0  0  0  0  0
   -9.9720    0.4980    1.6400 C   0  0  0  0  0  0  0  0  0  0  0  0
   -8.6810    0.0110    0.9790 C   0  0  0  0  0  0  0  0  0  0  0  0
   -5.7220    1.3400   -1.9830 C   0  0  0  0  0  0  0  0  0  0  0  0
   -0.2690   -0.2560   -0.7150 N   0  0  0  0  0  0  0  0  0  0  0  0
    3.3890    0.1290   -0.4240 N   0  0  0  0  0  0  0  0  0  0  0  0
    4.7700    3.1450    1.4540 N   0  0  0  0  0  0  0  0  0  0  0  0
   -1.4810    0.8480    0.7830 O   0  0  0  0  0  0  0  0  0  0  0  0
    3.0460    2.3200    0.2330 O   0  0  0  0  0  0  0  0  0  0  0  0
    6.1750   -1.4160   -2.2960 O   0  0  0  0  0  0  0  0  0  0  0  0
    1.9710   -0.2870   -2.0780 O   0  0  0  0  0  0  0  0  0  0  0  0
   -2.5770   -0.0040   -0.9480 O   0  0  0  0  0  0  0  0  0  0  0  0
    5.3230   -2.0980    0.1270 S   0  3  0  0  0  0  0  0  0  0  0  0
    6.7660    2.5630    1.8090 H   0  0  0  0  0  0  0  0  0  0  0  0
    6.5060    4.3260    1.6550 H   0  0  0  0  0  0  0  0  0  0  0  0
    6.4300    4.2370   -0.6980 H   0  0  0  0  0  0  0  0  0  0  0  0
    7.4170    2.7590   -0.4440 H   0  0  0  0  0  0  0  0  0  0  0  0
    4.2000   -1.9450   -1.9980 H   0  0  0  0  0  0  0  0  0  0  0  0
    4.9180    2.7090   -1.6740 H   0  0  0  0  0  0  0  0  0  0  0  0
    6.5680    0.7920   -1.3850 H   0  0  0  0  0  0  0  0  0  0  0  0
    5.9130    0.5530    0.2530 H   0  0  0  0  0  0  0  0  0  0  0  0
    4.2490    0.4830   -2.3030 H   0  0  0  0  0  0  0  0  0  0  0  0
    0.9160    0.9700    0.5060 H   0  0  0  0  0  0  0  0  0  0  0  0
    1.0790   -2.0720    0.6600 H   0  0  0  0  0  0  0  0  0  0  0  0
    2.0800   -0.9570    1.6200 H   0  0  0  0  0  0  0  0  0  0  0  0
   -0.9710   -0.9880    1.6250 H   0  0  0  0  0  0  0  0  0  0  0  0
    1.0330   -2.0570    3.6640 H   0  0  0  0  0  0  0  0  0  0  0  0
   -0.7330   -1.9990    3.8770 H   0  0  0  0  0  0  0  0  0  0  0  0
   -0.0210   -3.0470    2.6270 H   0  0  0  0  0  0  0  0  0  0  0  0
    1.0810    0.4260    3.3870 H   0  0  0  0  0  0  0  0  0  0  0  0
    0.0610    1.2040    2.1530 H   0  0  0  0  0  0  0  0  0  0  0  0
   -0.6850    0.4840    3.6000 H   0  0  0  0  0  0  0  0  0  0  0  0
   -3.7210    1.6200   -0.3120 H   0  0  0  0  0  0  0  0  0  0  0  0
   -3.9770    0.1090    0.5940 H   0  0  0  0  0  0  0  0  0  0  0  0
   -4.8690   -0.7410   -1.8790 H   0  0  0  0  0  0  0  0  0  0  0  0
   -6.4720    1.0660    0.1220 H   0  0  0  0  0  0  0  0  0  0  0  0
   -7.6590   -0.4000   -2.2850 H   0  0  0  0  0  0  0  0  0  0  0  0
   -7.2960   -1.3860   -0.8490 H   0  0  0  0  0  0  0  0  0  0  0  0
   -9.0060    1.1400   -0.8260 H   0  0  0  0  0  0  0  0  0  0  0  0
  -10.0890   -0.7010   -2.0850 H   0  0  0  0  0  0  0  0  0  0  0  0
   -9.8040   -1.8040   -0.7170 H   0  0  0  0  0  0  0  0  0  0  0  0
  -11.4660    0.7540   -0.6250 H   0  0  0  0  0  0  0  0  0  0  0  0
  -12.1130   -0.9030   -0.6680 H   0  0  0  0  0  0  0  0  0  0  0  0
  -12.0610   -0.0280    1.6510 H   0  0  0  0  0  0  0  0  0  0  0  0
  -10.9550   -1.4100    1.4650 H   0  0  0  0  0  0  0  0  0  0  0  0
  -10.1580    1.5340    1.3550 H   0  0  0  0  0  0  0  0  0  0  0  0
   -9.8730    0.4310    2.7240 H   0  0  0  0  0  0  0  0  0  0  0  0
   -8.4950   -1.0240    1.2640 H   0  0  0  0  0  0  0  0  0  0  0  0
   -7.8480    0.6330    1.3070 H   0  0  0  0  0  0  0  0  0  0  0  0
   -5.3760    2.3520   -1.7700 H   0  0  0  0  0  0  0  0  0  0  0  0
   -6.1030    1.1760   -2.9910 H   0  0  0  0  0  0  0  0  0  0  0  0
   -0.2400   -0.7580   -1.5440 H   0  0  0  0  0  0  0  0  0  0  0  0
    3.5270    0.3050    0.5200 H   0  0  0  0  0  0  0  0  0  0  0  0
    4.2760    3.3810    2.2550 H   0  0  0  0  0  0  0  0  0  0  0  0
    6.9190   -0.9290   -1.9160 H   0  0  0  0  0  0  0  0  0  0  0  0
    6.3200   -1.4220    0.8810 O   0  0  0  0  0  0  0  0  0  0  0  0
    4.0300   -2.0920    0.9290 O   0  0  0  0  0  0  0  0  0  0  0  0
    5.7690   -3.5400   -0.0720 O   0  0  0  0  0  0  0  0  0  0  0  0
    3.2920   -2.5350    0.4880 H   0  0  0  0  0  0  0  0  0  0  0  0
    5.9700   -4.0060    0.7510 H   0  0  0  0  0  0  0  0  0  0  0  0
 11 13  1  0  0  0  0
 21 22  1  0  0  0  0
 22 23  1  0  0  0  0
 20 21  1  0  0  0  0
 19 20  1  0  0  0  0
 11 12  1  0  0  0  0
 10 11  1  0  0  0  0
 23 24  1  0  0  0  0
 19 24  1  0  0  0  0
 18 19  1  0  0  0  0
 17 18  1  0  0  0  0
  9 10  1  0  0  0  0
 16 17  1  0  0  0  0
 17 25  1  0  0  0  0
  9 26  1  0  0  0  0
  8 26  1  0  0  0  0
  9 14  1  0  0  0  0
  8 33  1  0  0  0  0
 15 33  1  0  0  0  0
 16 25  1  0  0  0  0
 15 16  1  0  0  0  0
  8 29  2  0  0  0  0
 14 32  2  0  0  0  0
 14 27  1  0  0  0  0
  7 27  1  0  0  0  0
  4 34  1  0  0  0  0
  4  7  1  0  0  0  0
  6  7  1  0  0  0  0
  4 31  1  0  0  0  0
  5  6  1  0  0  0  0
  3  5  1  0  0  0  0
  1  5  1  0  0  0  0
  2  3  1  0  0  0  0
  1 30  2  0  0  0  0
  1 28  1  0  0  0  0
  2 28  1  0  0  0  0
  2 35  1  0  0  0  0
  2 36  1  0  0  0  0
  3 37  1  0  0  0  0
  3 38  1  0  0  0  0
  4 39  1  0  0  0  0
  5 40  1  0  0  0  0
  6 41  1  0  0  0  0
  6 42  1  0  0  0  0
  7 43  1  0  0  0  0
  9 44  1  0  0  0  0
 10 45  1  0  0  0  0
 10 46  1  0  0  0  0
 11 47  1  0  0  0  0
 12 48  1  0  0  0  0
 12 49  1  0  0  0  0
 12 50  1  0  0  0  0
 13 51  1  0  0  0  0
 13 52  1  0  0  0  0
 13 53  1  0  0  0  0
 15 54  1  0  0  0  0
 15 55  1  0  0  0  0
 16 56  1  0  0  0  0
 17 57  1  0  0  0  0
 18 58  1  0  0  0  0
 18 59  1  0  0  0  0
 19 60  1  0  0  0  0
 20 61  1  0  0  0  0
 20 62  1  0  0  0  0
 21 63  1  0  0  0  0
 21 64  1  0  0  0  0
 22 65  1  0  0  0  0
 22 66  1  0  0  0  0
 23 67  1  0  0  0  0
 23 68  1  0  0  0  0
 24 69  1  0  0  0  0
 24 70  1  0  0  0  0
 25 71  1  0  0  0  0
 25 72  1  0  0  0  0
 26 73  1  0  0  0  0
 27 74  1  0  0  0  0
 28 75  1  0  0  0  0
 31 76  1  0  0  0  0
 34 77  2  0  0  0  0
 34 78  1  0  0  0  0
 34 79  1  0  0  0  0
 78 80  1  0  0  0  0
 79 81  1  0  0  0  0
M  CHG  1  34   1
M  END
> <OPENEYE_ISO_SMILES>
CC(C)C[C@@H](C(=O)N[C@@H](C[C@@H]1CCNC1=O)[C@@H](O)[S+](=O)(O)O)NC(=O)OC[C@@H]2C[C@H]2CC3CCCCC3

> <OPENEYE_INCHI>
InChI=1S/C25H42N3O8S/c1-15(2)10-20(28-25(32)36-14-19-12-18(19)11-16-6-4-3-5-7-16)23(30)27-21(24(31)37(33,34)35)13-17-8-9-26-22(17)29/h15-21,24,31H,3-14H2,1-2H3,(H3-2,26,27,28,29,30,32,33,34,35)/q-1/p+2/t17-,18+,19-,20-,21-,24-/m0/s1

> <OPENEYE_INCHIKEY>
GAORZLDPHGZTSC-IKEPQGCXSA-P

> <FORMULA>
C25H44N3O8S+

$$$$
