SD6
  -OEChem-02242320043D

 81 83  0     1  0  0  0  0  0999 V2000
    5.9150    2.4360    0.4140 S   0  3  0  0  0  0  0  0  0  0  0  0
    3.3310   -2.5930    1.0510 C   0  0  0  0  0  0  0  0  0  0  0  0
    5.0130   -4.1880    1.1980 C   0  0  0  0  0  0  0  0  0  0  0  0
    5.4230   -3.0540    2.1630 C   0  0  0  0  0  0  0  0  0  0  0  0
    5.1290    1.1390   -0.5810 C   0  0  2  0  0  0  0  0  0  0  0  0
    4.5070   -1.8980    1.7000 C   0  0  1  0  0  0  0  0  0  0  0  0
    5.2330   -1.0130    0.6850 C   0  0  0  0  0  0  0  0  0  0  0  0
    4.3550    0.1910    0.3370 C   0  0  2  0  0  0  0  0  0  0  0  0
   -1.6020   -0.0310   -0.1710 C   0  0  0  0  0  0  0  0  0  0  0  0
    0.7330   -0.0760   -0.8670 C   0  0  1  0  0  0  0  0  0  0  0  0
    0.7290    0.1840   -2.3740 C   0  0  0  0  0  0  0  0  0  0  0  0
    1.8740   -0.5910   -3.0290 C   0  0  0  0  0  0  0  0  0  0  0  0
    1.6140   -2.0930   -2.8990 C   0  0  0  0  0  0  0  0  0  0  0  0
    1.9640   -0.2140   -4.5100 C   0  0  0  0  0  0  0  0  0  0  0  0
    2.0100    0.4560   -0.2690 C   0  0  0  0  0  0  0  0  0  0  0  0
   -3.9270   -0.1160    0.3570 C   0  0  0  0  0  0  0  0  0  0  0  0
   -5.0300    0.7860    0.9140 C   0  0  1  0  0  0  0  0  0  0  0  0
   -6.4530    0.2260    0.9450 C   0  0  2  0  0  0  0  0  0  0  0  0
   -7.6030    1.2030    0.6910 C   0  0  0  0  0  0  0  0  0  0  0  0
   -8.9250    0.4340    0.6400 C   0  0  0  0  0  0  0  0  0  0  0  0
  -10.0850    1.4220    0.5100 C   0  0  0  0  0  0  0  0  0  0  0  0
  -11.4070    0.6530    0.4590 C   0  0  0  0  0  0  0  0  0  0  0  0
  -11.4020   -0.2890   -0.7470 C   0  0  0  0  0  0  0  0  0  0  0  0
  -10.2410   -1.2770   -0.6180 C   0  0  0  0  0  0  0  0  0  0  0  0
   -8.9200   -0.5080   -0.5670 C   0  0  0  0  0  0  0  0  0  0  0  0
   -5.6660    0.3850    2.2470 C   0  0  0  0  0  0  0  0  0  0  0  0
   -0.4120    0.5980   -0.2510 N   0  0  0  0  0  0  0  0  0  0  0  0
    3.1440   -0.2690   -0.3460 N   0  0  0  0  0  0  0  0  0  0  0  0
    3.6380   -3.8750    0.7890 N   0  0  0  0  0  0  0  0  0  0  0  0
   -1.7010   -1.1900   -0.5240 O   0  0  0  0  0  0  0  0  0  0  0  0
    2.2630   -2.0710    0.8080 O   0  0  0  0  0  0  0  0  0  0  0  0
    6.1330    0.4050   -1.2850 O   0  0  0  0  0  0  0  0  0  0  0  0
    2.0180    1.5360    0.2820 O   0  0  0  0  0  0  0  0  0  0  0  0
   -2.6800    0.6240    0.2990 O   0  0  0  0  0  0  0  0  0  0  0  0
    5.6700   -4.2030    0.3290 H   0  0  0  0  0  0  0  0  0  0  0  0
    5.0440   -5.1490    1.7110 H   0  0  0  0  0  0  0  0  0  0  0  0
    5.2140   -3.3280    3.1970 H   0  0  0  0  0  0  0  0  0  0  0  0
    6.4740   -2.7950    2.0350 H   0  0  0  0  0  0  0  0  0  0  0  0
    4.4430    1.5940   -1.2950 H   0  0  0  0  0  0  0  0  0  0  0  0
    4.1770   -1.3050    2.5540 H   0  0  0  0  0  0  0  0  0  0  0  0
    6.1740   -0.6650    1.1120 H   0  0  0  0  0  0  0  0  0  0  0  0
    5.4360   -1.5880   -0.2190 H   0  0  0  0  0  0  0  0  0  0  0  0
    4.0800    0.7150    1.2520 H   0  0  0  0  0  0  0  0  0  0  0  0
    0.6650   -1.1490   -0.6830 H   0  0  0  0  0  0  0  0  0  0  0  0
   -0.2210   -0.1450   -2.7970 H   0  0  0  0  0  0  0  0  0  0  0  0
    0.8590    1.2500   -2.5590 H   0  0  0  0  0  0  0  0  0  0  0  0
    2.8120   -0.3400   -2.5330 H   0  0  0  0  0  0  0  0  0  0  0  0
    0.7090   -2.3530   -3.4490 H   0  0  0  0  0  0  0  0  0  0  0  0
    2.4600   -2.6450   -3.3090 H   0  0  0  0  0  0  0  0  0  0  0  0
    1.4870   -2.3500   -1.8480 H   0  0  0  0  0  0  0  0  0  0  0  0
    1.0260   -0.4650   -5.0050 H   0  0  0  0  0  0  0  0  0  0  0  0
    2.1490    0.8560   -4.6020 H   0  0  0  0  0  0  0  0  0  0  0  0
    2.7800   -0.7660   -4.9760 H   0  0  0  0  0  0  0  0  0  0  0  0
   -3.8060   -0.9840    1.0060 H   0  0  0  0  0  0  0  0  0  0  0  0
   -4.2000   -0.4470   -0.6450 H   0  0  0  0  0  0  0  0  0  0  0  0
   -4.9120    1.8510    0.7140 H   0  0  0  0  0  0  0  0  0  0  0  0
   -6.6040   -0.7860    0.5680 H   0  0  0  0  0  0  0  0  0  0  0  0
   -7.6410    1.9370    1.4960 H   0  0  0  0  0  0  0  0  0  0  0  0
   -7.4430    1.7140   -0.2590 H   0  0  0  0  0  0  0  0  0  0  0  0
   -9.0420   -0.1480    1.5540 H   0  0  0  0  0  0  0  0  0  0  0  0
  -10.0890    2.0930    1.3700 H   0  0  0  0  0  0  0  0  0  0  0  0
   -9.9680    2.0030   -0.4040 H   0  0  0  0  0  0  0  0  0  0  0  0
  -11.5250    0.0710    1.3730 H   0  0  0  0  0  0  0  0  0  0  0  0
  -12.2340    1.3570    0.3670 H   0  0  0  0  0  0  0  0  0  0  0  0
  -12.3440   -0.8370   -0.7840 H   0  0  0  0  0  0  0  0  0  0  0  0
  -11.2840    0.2920   -1.6610 H   0  0  0  0  0  0  0  0  0  0  0  0
  -10.3590   -1.8590    0.2960 H   0  0  0  0  0  0  0  0  0  0  0  0
  -10.2380   -1.9480   -1.4770 H   0  0  0  0  0  0  0  0  0  0  0  0
   -8.8020    0.0740   -1.4810 H   0  0  0  0  0  0  0  0  0  0  0  0
   -8.0930   -1.2120   -0.4750 H   0  0  0  0  0  0  0  0  0  0  0  0
   -5.2980   -0.5220    2.7270 H   0  0  0  0  0  0  0  0  0  0  0  0
   -5.9670    1.1860    2.9230 H   0  0  0  0  0  0  0  0  0  0  0  0
   -0.3150    1.4970    0.0990 H   0  0  0  0  0  0  0  0  0  0  0  0
    3.1570   -1.0960   -0.8530 H   0  0  0  0  0  0  0  0  0  0  0  0
    3.0300   -4.5110    0.3820 H   0  0  0  0  0  0  0  0  0  0  0  0
    5.7840   -0.3070   -1.8390 H   0  0  0  0  0  0  0  0  0  0  0  0
    6.7640    3.3110   -0.3170 O   0  0  0  0  0  0  0  0  0  0  0  0
    4.8200    3.2670    1.0680 O   0  0  0  0  0  0  0  0  0  0  0  0
    6.7400    1.7700    1.5050 O   0  0  0  0  0  0  0  0  0  0  0  0
    5.1510    3.9880    1.6210 H   0  0  0  0  0  0  0  0  0  0  0  0
    6.2390    1.1510    2.0550 H   0  0  0  0  0  0  0  0  0  0  0  0
 12 14  1  0  0  0  0
 22 23  1  0  0  0  0
 23 24  1  0  0  0  0
 21 22  1  0  0  0  0
 20 21  1  0  0  0  0
 12 13  1  0  0  0  0
 11 12  1  0  0  0  0
 24 25  1  0  0  0  0
 20 25  1  0  0  0  0
 19 20  1  0  0  0  0
 18 19  1  0  0  0  0
 10 11  1  0  0  0  0
 17 18  1  0  0  0  0
 18 26  1  0  0  0  0
 10 27  1  0  0  0  0
  9 27  1  0  0  0  0
 10 15  1  0  0  0  0
  9 34  1  0  0  0  0
 16 34  1  0  0  0  0
 17 26  1  0  0  0  0
 16 17  1  0  0  0  0
  9 30  2  0  0  0  0
 15 33  2  0  0  0  0
 15 28  1  0  0  0  0
  8 28  1  0  0  0  0
  5 32  1  0  0  0  0
  1  5  1  0  0  0  0
  5  8  1  0  0  0  0
  7  8  1  0  0  0  0
  6  7  1  0  0  0  0
  4  6  1  0  0  0  0
  2  6  1  0  0  0  0
  3  4  1  0  0  0  0
  2 31  2  0  0  0  0
  2 29  1  0  0  0  0
  3 29  1  0  0  0  0
  3 35  1  0  0  0  0
  3 36  1  0  0  0  0
  4 37  1  0  0  0  0
  4 38  1  0  0  0  0
  5 39  1  0  0  0  0
  6 40  1  0  0  0  0
  7 41  1  0  0  0  0
  7 42  1  0  0  0  0
  8 43  1  0  0  0  0
 10 44  1  0  0  0  0
 11 45  1  0  0  0  0
 11 46  1  0  0  0  0
 12 47  1  0  0  0  0
 13 48  1  0  0  0  0
 13 49  1  0  0  0  0
 13 50  1  0  0  0  0
 14 51  1  0  0  0  0
 14 52  1  0  0  0  0
 14 53  1  0  0  0  0
 16 54  1  0  0  0  0
 16 55  1  0  0  0  0
 17 56  1  0  0  0  0
 18 57  1  0  0  0  0
 19 58  1  0  0  0  0
 19 59  1  0  0  0  0
 20 60  1  0  0  0  0
 21 61  1  0  0  0  0
 21 62  1  0  0  0  0
 22 63  1  0  0  0  0
 22 64  1  0  0  0  0
 23 65  1  0  0  0  0
 23 66  1  0  0  0  0
 24 67  1  0  0  0  0
 24 68  1  0  0  0  0
 25 69  1  0  0  0  0
 25 70  1  0  0  0  0
 26 71  1  0  0  0  0
 26 72  1  0  0  0  0
 27 73  1  0  0  0  0
 28 74  1  0  0  0  0
 29 75  1  0  0  0  0
 32 76  1  0  0  0  0
  1 77  2  0  0  0  0
  1 78  1  0  0  0  0
  1 79  1  0  0  0  0
 78 80  1  0  0  0  0
 79 81  1  0  0  0  0
M  CHG  1   1   1
M  END
> <OPENEYE_ISO_SMILES>
CC(C)C[C@@H](C(=O)N[C@@H](C[C@@H]1CCNC1=O)[C@H](O)[S+](=O)(O)O)NC(=O)OC[C@@H]2C[C@H]2CC3CCCCC3

> <OPENEYE_INCHI>
InChI=1S/C25H42N3O8S/c1-15(2)10-20(28-25(32)36-14-19-12-18(19)11-16-6-4-3-5-7-16)23(30)27-21(24(31)37(33,34)35)13-17-8-9-26-22(17)29/h15-21,24,31H,3-14H2,1-2H3,(H3-2,26,27,28,29,30,32,33,34,35)/q-1/p+2/t17-,18+,19-,20-,21-,24+/m0/s1

> <OPENEYE_INCHIKEY>
GAORZLDPHGZTSC-UEYTUVLBSA-P

> <FORMULA>
C25H44N3O8S+

$$$$
