@<TRIPOS>MOLECULE
/home/pku/3cl/gett_pdb/7SI9/7SI9_mol2/ligand/7SI9_4WI.pdb
 35 37 0 0 0
SMALL
GASTEIGER

@<TRIPOS>ATOM
      1  C8       -14.6990   39.8630  -15.4150 C.2   401  4WI401      0.2410
      2  C3       -12.8450   44.4330  -16.6170 C.2   401  4WI401      0.1171
      3  C1       -10.8050   42.1190  -18.2250 C.2   401  4WI401      0.2597
      4  C13       -9.8550   39.2650  -18.3950 C.2   401  4WI401      0.2458
      5  C21       -7.6460   36.7480  -18.4820 C.2   401  4WI401      0.3371
      6  C6       -14.7730   40.4080  -17.7720 C.3   401  4WI401      0.0326
      7  C7       -15.5660   39.1200  -17.4780 C.3   401  4WI401      0.1156
      8  C10       -8.0200   40.3950  -19.7420 C.3   401  4WI401      0.0939
      9  C5       -13.9480   40.6590  -16.4890 C.3   401  4WI401      0.0821
     10  C9        -9.3620   41.6250  -18.0650 C.3   401  4WI401      0.1535
     11  C11       -7.5940   41.8480  -19.7730 C.3   401  4WI401      0.0220
     12  C12       -8.4090   42.6130  -18.7460 C.3   401  4WI401      0.0289
     13  C18       -6.9050   42.4560  -18.5650 C.3   401  4WI401      0.0037
     14  C19       -6.0870   43.7050  -18.8500 C.3   401  4WI401      0.0001
     15  C20       -6.3110   41.6010  -17.4580 C.3   401  4WI401      0.0001
     16  C16      -11.7280   38.4610  -20.5340 C.3   401  4WI401      0.0022
     17  C17      -11.8920   36.7250  -18.7200 C.3   401  4WI401      0.0022
     18  C23      -10.5720   36.2540  -20.8050 C.3   401  4WI401      0.0022
     19  C4       -13.7140   42.1050  -16.0410 C.3   401  4WI401      0.0371
     20  C2       -12.8920   42.9610  -17.0240 C.3   401  4WI401      0.1386
     21  C14       -9.6530   37.9550  -19.1940 C.3   401  4WI401      0.1714
     22  C22       -7.0420   35.7960  -17.4280 C.3   401  4WI401      0.4711
     23  C15      -10.9700   37.3450  -19.7900 C.3   401  4WI401      0.0269
     24  N5       -13.6120   45.2760  -17.1980 N.2   401  4WI401     -0.1496
     25  N2       -15.6720   39.1470  -16.0190 N.am  401  4WI401     -0.2054
     26  N3        -9.1380   40.3460  -18.7710 N.am  401  4WI401     -0.2716
     27  N1       -11.4810   42.5120  -17.1170 N.am  401  4WI401     -0.1996
     28  N4        -8.9490   37.0080  -18.3300 N.am  401  4WI401     -0.1908
     29  O1       -14.4480   39.8660  -14.2010 O.2   401  4WI401     -0.2734
     30  O2       -11.3570   42.1360  -19.3430 O.2   401  4WI401     -0.2715
     31  O3       -10.6250   39.2930  -17.4180 O.2   401  4WI401     -0.2730
     32  O4        -6.9050   37.1870  -19.3650 O.2   401  4WI401     -0.2642
     33  F1        -7.4670   34.5210  -17.5580 F     401  4WI401     -0.1620
     34  F2        -5.6980   35.7980  -17.5240 F     401  4WI401     -0.1620
     35  F3        -7.3690   36.2190  -16.1960 F     401  4WI401     -0.1620
@<TRIPOS>BOND
     1    18    23    1
     2    16    23    1
     3    23    21    1
     4    23    17    1
     5    11     8    1
     6    11    12    1
     7    11    13    1
     8     8    26    1
     9    32     5    2
    10    30     3    2
    11    21     4    1
    12    21    28    1
    13    14    13    1
    14    26     4   am
    15    26    10    1
    16    12    13    1
    17    12    10    1
    18    13    15    1
    19     5    28   am
    20     5    22    1
    21     4    31    2
    22     3    10    1
    23     3    27   am
    24     6     7    1
    25     6     9    1
    26    33    22    1
    27    34    22    1
    28     7    25    1
    29    22    35    1
    30    24     2    2
    31    27    20    1
    32    20     2    1
    33    20    19    1
    34     9    19    1
    35     9     1    1
    36    25     1   am
    37     1    29    2
