RG5
  -OEChem-02242320043D

 38 42  0     1  0  0  0  0  0999 V2000
   -3.1720   -1.7560    0.9660 N   0  0  0  0  0  0  0  0  0  0  0  0
   -3.8760    2.1060   -0.3680 C   0  0  0  0  0  0  0  0  0  0  0  0
   -2.6610    1.4680   -0.4930 C   0  0  0  0  0  0  0  0  0  0  0  0
   -2.5080    0.1670   -0.0190 C   0  0  0  0  0  0  0  0  0  0  0  0
    0.2270   -2.8930    0.3430 C   0  0  0  0  0  0  0  0  0  0  0  0
    1.5680    0.9590   -0.2660 C   0  0  0  0  0  0  0  0  0  0  0  0
    3.9060    0.5740    0.4700 C   0  0  0  0  0  0  0  0  0  0  0  0
    2.7340   -0.0330   -0.2570 C   0  0  2  0  0  0  0  0  0  0  0  0
    2.0510   -0.8840   -2.3890 C   0  0  0  0  0  0  0  0  0  0  0  0
    0.8780    0.0990   -2.4200 C   0  0  0  0  0  0  0  0  0  0  0  0
   -0.0530   -0.7380   -0.4280 C   0  0  0  0  0  0  0  0  0  0  0  0
   -1.3830   -0.7800    0.0070 C   0  0  0  0  0  0  0  0  0  0  0  0
   -1.8550   -1.9480    0.6250 C   0  0  0  0  0  0  0  0  0  0  0  0
   -3.5900   -0.4920    0.5860 C   0  0  0  0  0  0  0  0  0  0  0  0
   -4.8090    0.1670    0.7050 C   0  0  0  0  0  0  0  0  0  0  0  0
   -4.9480    1.4560    0.2300 C   0  0  0  0  0  0  0  0  0  0  0  0
    3.1110   -0.3300   -1.6040 O   0  0  0  0  0  0  0  0  0  0  0  0
   -6.1350    2.0900    0.3480 F   0  0  0  0  0  0  0  0  0  0  0  0
    0.4560    0.3930   -1.0420 N   0  0  1  0  0  0  0  0  0  0  0  0
    4.5690    0.0400    1.5140 N   0  0  0  0  0  0  0  0  0  0  0  0
    5.5000    0.8730    1.8380 N   0  0  0  0  0  0  0  0  0  0  0  0
    5.4420    1.8880    1.0490 N   0  0  0  0  0  0  0  0  0  0  0  0
    0.7090   -1.8130   -0.2430 N   0  0  0  0  0  0  0  0  0  0  0  0
   -1.0160   -2.9730    0.7690 N   0  0  0  0  0  0  0  0  0  0  0  0
    4.4820    1.7220    0.2070 N   0  0  0  0  0  0  0  0  0  0  0  0
   -3.7310   -2.4150    1.4060 H   0  0  0  0  0  0  0  0  0  0  0  0
   -3.9950    3.1140   -0.7350 H   0  0  0  0  0  0  0  0  0  0  0  0
   -1.8290    1.9760   -0.9580 H   0  0  0  0  0  0  0  0  0  0  0  0
    0.8770   -3.7440    0.4780 H   0  0  0  0  0  0  0  0  0  0  0  0
    1.2410    1.1450    0.7570 H   0  0  0  0  0  0  0  0  0  0  0  0
    1.8900    1.8960   -0.7200 H   0  0  0  0  0  0  0  0  0  0  0  0
    2.4280   -0.9500    0.2470 H   0  0  0  0  0  0  0  0  0  0  0  0
    1.7250   -1.8260   -1.9480 H   0  0  0  0  0  0  0  0  0  0  0  0
    2.4040   -1.0610   -3.4050 H   0  0  0  0  0  0  0  0  0  0  0  0
    1.1890    1.0220   -2.9090 H   0  0  0  0  0  0  0  0  0  0  0  0
    0.0470   -0.3430   -2.9690 H   0  0  0  0  0  0  0  0  0  0  0  0
   -5.6480   -0.3300    1.1690 H   0  0  0  0  0  0  0  0  0  0  0  0
    4.3810   -0.8100    1.9410 H   0  0  0  0  0  0  0  0  0  0  0  0
 20 21  1  0  0  0  0
  7 20  1  0  0  0  0
 21 22  2  0  0  0  0
  8 17  1  0  0  0  0
  9 17  1  0  0  0  0
  7  8  1  0  0  0  0
  7 25  2  0  0  0  0
 22 25  1  0  0  0  0
  6  8  1  0  0  0  0
  9 10  1  0  0  0  0
  6 19  1  0  0  0  0
 10 19  1  0  0  0  0
 11 19  1  0  0  0  0
  2  3  2  0  0  0  0
  3  4  1  0  0  0  0
  2 16  1  0  0  0  0
 11 23  2  0  0  0  0
 11 12  1  0  0  0  0
  4 12  1  0  0  0  0
  4 14  2  0  0  0  0
  5 23  1  0  0  0  0
 12 13  2  0  0  0  0
 16 18  1  0  0  0  0
 15 16  2  0  0  0  0
 14 15  1  0  0  0  0
  1 14  1  0  0  0  0
  5 24  2  0  0  0  0
  1 13  1  0  0  0  0
 13 24  1  0  0  0  0
  1 26  1  0  0  0  0
  2 27  1  0  0  0  0
  3 28  1  0  0  0  0
  5 29  1  0  0  0  0
  6 30  1  0  0  0  0
  6 31  1  0  0  0  0
  8 32  1  0  0  0  0
  9 33  1  0  0  0  0
  9 34  1  0  0  0  0
 10 35  1  0  0  0  0
 10 36  1  0  0  0  0
 15 37  1  0  0  0  0
 20 38  1  0  0  0  0
M  END
> <OPENEYE_ISO_SMILES>
c1cc2c(cc1F)[nH]c3c2c(ncn3)[N@@]4CCO[C@H](C4)c5[nH]nnn5

> <OPENEYE_INCHI>
InChI=1S/C15H13FN8O/c16-8-1-2-9-10(5-8)19-14-12(9)15(18-7-17-14)24-3-4-25-11(6-24)13-20-22-23-21-13/h1-2,5,7,11H,3-4,6H2,(H,17,18,19)(H,20,21,22,23)/t11-/m1/s1

> <OPENEYE_INCHIKEY>
BPQSGQBVNCJOKS-LLVKDONJSA-N

> <FORMULA>
C15H13FN8O

$$$$
