5ZB
  -OEChem-02242320013D

 59 62  0     1  0  0  0  0  0999 V2000
    6.7290    2.6930   -0.0980 C   0  0  0  0  0  0  0  0  0  0  0  0
    2.5470    0.8450   -0.5590 C   0  0  0  0  0  0  0  0  0  0  0  0
   -0.7130   -1.6070    0.4910 C   0  0  2  0  0  0  0  0  0  0  0  0
    0.6310   -2.0490   -1.5790 C   0  0  0  0  0  0  0  0  0  0  0  0
   -1.6000   -2.2100   -3.1260 C   0  0  0  0  0  0  0  0  0  0  0  0
   -1.7470   -1.9590   -1.7710 C   0  0  0  0  0  0  0  0  0  0  0  0
   -1.1860   -0.1930    0.7100 C   0  0  0  0  0  0  0  0  0  0  0  0
   -2.8370    1.5770    0.4320 C   0  0  1  0  0  0  0  0  0  0  0  0
   -4.3420    1.6190    0.3670 C   0  0  0  0  0  0  0  0  0  0  0  0
   -6.3950    0.8990   -0.6320 C   0  0  0  0  0  0  0  0  0  0  0  0
    1.9070   -3.0020    2.4320 O   0  0  0  0  0  0  0  0  0  0  0  0
    0.7950   -2.7850    1.9990 C   0  0  0  0  0  0  0  0  0  0  0  0
    0.5990   -1.7850    1.1170 N   0  0  0  0  0  0  0  0  0  0  0  0
    1.6510   -0.9160    0.7990 C   0  0  0  0  0  0  0  0  0  0  0  0
    2.8320   -0.9600    1.5260 C   0  0  0  0  0  0  0  0  0  0  0  0
    3.8710   -0.1080    1.2090 C   0  0  0  0  0  0  0  0  0  0  0  0
    3.7290    0.8010    0.1690 C   0  0  0  0  0  0  0  0  0  0  0  0
    4.7800    1.6750   -0.1470 N   0  0  0  0  0  0  0  0  0  0  0  0
    5.9870    1.7310    0.4890 C   0  0  0  0  0  0  0  0  0  0  0  0
    5.9540    3.2510   -1.1350 C   0  0  0  0  0  0  0  0  0  0  0  0
    4.7690    2.6060   -1.1460 C   0  0  0  0  0  0  0  0  0  0  0  0
    1.5110   -0.0110   -0.2450 C   0  0  0  0  0  0  0  0  0  0  0  0
   -0.6060   -1.8780   -0.9870 C   0  0  0  0  0  0  0  0  0  0  0  0
    0.7330   -2.2820   -2.8730 N   0  0  0  0  0  0  0  0  0  0  0  0
   -0.3300   -2.3650   -3.6490 C   0  0  0  0  0  0  0  0  0  0  0  0
   -2.3780    0.2030    0.2190 N   0  0  0  0  0  0  0  0  0  0  0  0
   -2.2540    2.4840   -0.6540 C   0  0  0  0  0  0  0  0  0  0  0  0
   -5.0150    0.8600   -0.5720 C   0  0  0  0  0  0  0  0  0  0  0  0
   -7.1030    1.6960    0.2470 C   0  0  0  0  0  0  0  0  0  0  0  0
   -6.4310    2.4510    1.1900 C   0  0  0  0  0  0  0  0  0  0  0  0
   -5.0500    2.4130    1.2500 C   0  0  0  0  0  0  0  0  0  0  0  0
   -0.4950    0.5890    1.3280 O   0  0  0  0  0  0  0  0  0  0  0  0
   -0.3670   -3.6340    2.4460 C   0  0  0  0  0  0  0  0  0  0  0  0
    7.7310    2.9840    0.1780 H   0  0  0  0  0  0  0  0  0  0  0  0
    2.4380    1.5520   -1.3680 H   0  0  0  0  0  0  0  0  0  0  0  0
   -1.4250   -2.3020    0.9370 H   0  0  0  0  0  0  0  0  0  0  0  0
    1.5250   -1.9870   -0.9760 H   0  0  0  0  0  0  0  0  0  0  0  0
   -2.4670   -2.2800   -3.7670 H   0  0  0  0  0  0  0  0  0  0  0  0
   -2.7270   -1.8330   -1.3350 H   0  0  0  0  0  0  0  0  0  0  0  0
   -2.5060    1.9240    1.4110 H   0  0  0  0  0  0  0  0  0  0  0  0
   -6.9210    0.3060   -1.3660 H   0  0  0  0  0  0  0  0  0  0  0  0
    2.9410   -1.6640    2.3380 H   0  0  0  0  0  0  0  0  0  0  0  0
    4.7900   -0.1410    1.7750 H   0  0  0  0  0  0  0  0  0  0  0  0
    6.2950    1.1130    1.3190 H   0  0  0  0  0  0  0  0  0  0  0  0
    6.2530    4.0490   -1.7980 H   0  0  0  0  0  0  0  0  0  0  0  0
    3.9500    2.7980   -1.8230 H   0  0  0  0  0  0  0  0  0  0  0  0
    0.5920    0.0240   -0.8110 H   0  0  0  0  0  0  0  0  0  0  0  0
   -0.2070   -2.5610   -4.7040 H   0  0  0  0  0  0  0  0  0  0  0  0
   -2.9300   -0.4230   -0.2750 H   0  0  0  0  0  0  0  0  0  0  0  0
   -1.1660    2.4530   -0.6070 H   0  0  0  0  0  0  0  0  0  0  0  0
   -2.5850    2.1370   -1.6330 H   0  0  0  0  0  0  0  0  0  0  0  0
   -2.5960    3.5070   -0.4960 H   0  0  0  0  0  0  0  0  0  0  0  0
   -4.4620    0.2370   -1.2600 H   0  0  0  0  0  0  0  0  0  0  0  0
   -8.1820    1.7270    0.2000 H   0  0  0  0  0  0  0  0  0  0  0  0
   -6.9840    3.0750    1.8770 H   0  0  0  0  0  0  0  0  0  0  0  0
   -4.5250    3.0020    1.9870 H   0  0  0  0  0  0  0  0  0  0  0  0
   -0.5410   -3.4790    3.5110 H   0  0  0  0  0  0  0  0  0  0  0  0
   -1.2590   -3.3520    1.8870 H   0  0  0  0  0  0  0  0  0  0  0  0
   -0.1400   -4.6850    2.2650 H   0  0  0  0  0  0  0  0  0  0  0  0
  5 25  2  0  0  0  0
  5  6  1  0  0  0  0
 24 25  1  0  0  0  0
  6 23  2  0  0  0  0
 11 12  2  0  0  0  0
  4 24  2  0  0  0  0
  4 23  1  0  0  0  0
  3 23  1  0  0  0  0
 12 33  1  0  0  0  0
 12 13  1  0  0  0  0
  3 13  1  0  0  0  0
  3  7  1  0  0  0  0
 13 14  1  0  0  0  0
  7 26  1  0  0  0  0
  7 32  2  0  0  0  0
  8 26  1  0  0  0  0
 14 15  2  0  0  0  0
 14 22  1  0  0  0  0
 15 16  1  0  0  0  0
  8 27  1  0  0  0  0
  8  9  1  0  0  0  0
  2 22  2  0  0  0  0
 16 17  2  0  0  0  0
  9 31  2  0  0  0  0
  9 28  1  0  0  0  0
 30 31  1  0  0  0  0
  2 17  1  0  0  0  0
 17 18  1  0  0  0  0
 29 30  2  0  0  0  0
 10 28  2  0  0  0  0
 18 19  1  0  0  0  0
 18 21  1  0  0  0  0
  1 19  2  0  0  0  0
 10 29  1  0  0  0  0
 20 21  2  0  0  0  0
  1 20  1  0  0  0  0
  1 34  1  0  0  0  0
  2 35  1  0  0  0  0
  3 36  1  0  0  0  0
  4 37  1  0  0  0  0
  5 38  1  0  0  0  0
  6 39  1  0  0  0  0
  8 40  1  0  0  0  0
 10 41  1  0  0  0  0
 15 42  1  0  0  0  0
 16 43  1  0  0  0  0
 19 44  1  0  0  0  0
 20 45  1  0  0  0  0
 21 46  1  0  0  0  0
 22 47  1  0  0  0  0
 25 48  1  0  0  0  0
 26 49  1  0  0  0  0
 27 50  1  0  0  0  0
 27 51  1  0  0  0  0
 27 52  1  0  0  0  0
 28 53  1  0  0  0  0
 29 54  1  0  0  0  0
 30 55  1  0  0  0  0
 31 56  1  0  0  0  0
 33 57  1  0  0  0  0
 33 58  1  0  0  0  0
 33 59  1  0  0  0  0
M  END
> <OPENEYE_ISO_SMILES>
C[C@@H](c1ccccc1)NC(=O)[C@@H](c2cccnc2)N(c3ccc(cc3)n4cccc4)C(=O)C

> <OPENEYE_INCHI>
InChI=1S/C27H26N4O2/c1-20(22-9-4-3-5-10-22)29-27(33)26(23-11-8-16-28-19-23)31(21(2)32)25-14-12-24(13-15-25)30-17-6-7-18-30/h3-20,26H,1-2H3,(H,29,33)/t20-,26+/m0/s1

> <OPENEYE_INCHIKEY>
JHNKYRWLHFZNLP-RXFWQSSRSA-N

> <FORMULA>
C27H26N4O2

$$$$
