I1Z
  -OEChem-02242320023D

 80 82  0     1  0  0  0  0  0999 V2000
   -4.9670   -2.5070   -0.5360 C   0  0  0  0  0  0  0  0  0  0  0  0
   -5.6780   -0.1370   -0.0200 C   0  0  0  0  0  0  0  0  0  0  0  0
   -5.4690   -3.8120    0.1190 C   0  0  0  0  0  0  0  0  0  0  0  0
   -1.0460    1.3060    0.5180 C   0  0  2  0  0  0  0  0  0  0  0  0
   -6.3450   -2.0850    1.3990 C   0  0  0  0  0  0  0  0  0  0  0  0
   -2.1770    0.9420   -0.4090 C   0  0  0  0  0  0  0  0  0  0  0  0
    2.3990   -0.1720   -0.5410 C   0  0  1  0  0  0  0  0  0  0  0  0
    2.2610   -0.8760   -1.8920 C   0  0  0  0  0  0  0  0  0  0  0  0
    3.6160   -0.8890   -2.6020 C   0  0  0  0  0  0  0  0  0  0  0  0
    1.7860   -2.3130   -1.6720 C   0  0  0  0  0  0  0  0  0  0  0  0
    1.2410   -0.1280   -2.7540 C   0  0  0  0  0  0  0  0  0  0  0  0
    6.9240   -1.2380    0.9160 C   0  0  0  0  0  0  0  0  0  0  0  0
    7.3910   -1.5660   -0.5040 C   0  0  0  0  0  0  0  0  0  0  0  0
    7.6400   -2.1520    1.9120 C   0  0  0  0  0  0  0  0  0  0  0  0
    7.2520    0.2220    1.2360 C   0  0  0  0  0  0  0  0  0  0  0  0
    5.0860    0.0630   -0.5670 O   0  0  0  0  0  0  0  0  0  0  0  0
   -5.0150    1.7060   -1.5400 C   0  0  0  0  0  0  0  0  0  0  0  0
    1.0470   -0.0790    0.1180 C   0  0  0  0  0  0  0  0  0  0  0  0
   -4.5300    0.4680   -0.8290 C   0  0  1  0  0  0  0  0  0  0  0  0
    4.6410   -0.7440    0.2260 C   0  0  0  0  0  0  0  0  0  0  0  0
    0.4990    2.1140   -1.0430 C   0  0  0  0  0  0  0  0  0  0  0  0
    0.0090    3.3660   -0.2780 C   0  0  2  0  0  0  0  0  0  0  0  0
    0.3050    3.4580    1.2200 C   0  0  0  0  0  0  0  0  0  0  0  0
    0.2340    4.8420    1.8690 C   0  0  0  0  0  0  0  0  0  0  0  0
    1.3700    2.5180    1.7880 C   0  0  0  0  0  0  0  0  0  0  0  0
   -1.0100    2.8320    0.7490 C   0  0  2  0  0  0  0  0  0  0  0  0
   -5.2310   -1.4710    0.5810 C   0  0  1  0  0  0  0  0  0  0  0  0
   -3.4310    0.8220    0.0720 N   0  0  0  0  0  0  0  0  0  0  0  0
    0.2580    0.9890   -0.1100 N   0  0  0  0  0  0  0  0  0  0  0  0
    3.3090   -0.9360    0.3160 N   0  0  0  0  0  0  0  0  0  0  0  0
    5.4780   -1.4460    1.0140 N   0  0  0  0  0  0  0  0  0  0  0  0
   -4.4640    2.8360   -1.3040 N   0  0  0  0  0  0  0  0  0  0  0  0
   -6.4600   -3.3940    1.1170 N   0  0  0  0  0  0  0  0  0  0  0  0
    0.6690   -0.9670    0.8540 O   0  0  0  0  0  0  0  0  0  0  0  0
   -1.9600    0.7570   -1.5880 O   0  0  0  0  0  0  0  0  0  0  0  0
   -7.0350   -1.4830    2.1950 O   0  0  0  0  0  0  0  0  0  0  0  0
   -3.9030   -2.5700   -0.7670 H   0  0  0  0  0  0  0  0  0  0  0  0
   -5.5440   -2.2720   -1.4300 H   0  0  0  0  0  0  0  0  0  0  0  0
   -5.9580    0.5460    0.7820 H   0  0  0  0  0  0  0  0  0  0  0  0
   -6.5360   -0.3020   -0.6720 H   0  0  0  0  0  0  0  0  0  0  0  0
   -5.9340   -4.4550   -0.6290 H   0  0  0  0  0  0  0  0  0  0  0  0
   -4.6430   -4.3330    0.6030 H   0  0  0  0  0  0  0  0  0  0  0  0
   -1.1490    0.7800    1.4670 H   0  0  0  0  0  0  0  0  0  0  0  0
    2.7990    0.8310   -0.6930 H   0  0  0  0  0  0  0  0  0  0  0  0
    4.3430   -1.4210   -1.9880 H   0  0  0  0  0  0  0  0  0  0  0  0
    3.5180   -1.3900   -3.5650 H   0  0  0  0  0  0  0  0  0  0  0  0
    3.9540    0.1350   -2.7590 H   0  0  0  0  0  0  0  0  0  0  0  0
    0.8210   -2.3040   -1.1670 H   0  0  0  0  0  0  0  0  0  0  0  0
    1.6880   -2.8150   -2.6350 H   0  0  0  0  0  0  0  0  0  0  0  0
    2.5130   -2.8460   -1.0580 H   0  0  0  0  0  0  0  0  0  0  0  0
    1.6060    0.8790   -2.9570 H   0  0  0  0  0  0  0  0  0  0  0  0
    1.1020   -0.6600   -3.6950 H   0  0  0  0  0  0  0  0  0  0  0  0
    0.2900   -0.0710   -2.2250 H   0  0  0  0  0  0  0  0  0  0  0  0
    6.8810   -0.9140   -1.2140 H   0  0  0  0  0  0  0  0  0  0  0  0
    8.4680   -1.4110   -0.5770 H   0  0  0  0  0  0  0  0  0  0  0  0
    7.1580   -2.6060   -0.7320 H   0  0  0  0  0  0  0  0  0  0  0  0
    7.4070   -3.1920    1.6840 H   0  0  0  0  0  0  0  0  0  0  0  0
    8.7170   -1.9970    1.8390 H   0  0  0  0  0  0  0  0  0  0  0  0
    7.3080   -1.9190    2.9240 H   0  0  0  0  0  0  0  0  0  0  0  0
    6.9200    0.4550    2.2480 H   0  0  0  0  0  0  0  0  0  0  0  0
    8.3290    0.3770    1.1630 H   0  0  0  0  0  0  0  0  0  0  0  0
    6.7420    0.8730    0.5270 H   0  0  0  0  0  0  0  0  0  0  0  0
   -5.8270    1.6380   -2.2490 H   0  0  0  0  0  0  0  0  0  0  0  0
   -4.1800   -0.2580   -1.5620 H   0  0  0  0  0  0  0  0  0  0  0  0
   -0.0770    1.9780   -1.9580 H   0  0  0  0  0  0  0  0  0  0  0  0
    1.5610    2.1990   -1.2700 H   0  0  0  0  0  0  0  0  0  0  0  0
   -0.1460    4.2800   -0.8520 H   0  0  0  0  0  0  0  0  0  0  0  0
   -0.1770    5.5570    1.1560 H   0  0  0  0  0  0  0  0  0  0  0  0
   -0.4060    4.7980    2.7500 H   0  0  0  0  0  0  0  0  0  0  0  0
    1.2350    5.1570    2.1630 H   0  0  0  0  0  0  0  0  0  0  0  0
    2.2420    3.0980    2.0910 H   0  0  0  0  0  0  0  0  0  0  0  0
    0.9660    1.9910    2.6520 H   0  0  0  0  0  0  0  0  0  0  0  0
    1.6610    1.7960    1.0250 H   0  0  0  0  0  0  0  0  0  0  0  0
   -1.9510    3.3450    0.9460 H   0  0  0  0  0  0  0  0  0  0  0  0
   -4.3380   -1.3330    1.1920 H   0  0  0  0  0  0  0  0  0  0  0  0
   -3.6050    0.9700    1.0150 H   0  0  0  0  0  0  0  0  0  0  0  0
    2.9540   -1.5790    0.9490 H   0  0  0  0  0  0  0  0  0  0  0  0
    5.1220   -2.0900    1.6470 H   0  0  0  0  0  0  0  0  0  0  0  0
   -4.7770    3.6330   -1.7610 H   0  0  0  0  0  0  0  0  0  0  0  0
   -7.1140   -3.9860    1.5200 H   0  0  0  0  0  0  0  0  0  0  0  0
  8 11  1  0  0  0  0
  8  9  1  0  0  0  0
 21 22  1  0  0  0  0
 21 29  1  0  0  0  0
 16 20  2  0  0  0  0
  7  8  1  0  0  0  0
  8 10  1  0  0  0  0
 22 23  1  0  0  0  0
 22 26  1  0  0  0  0
  7 30  1  0  0  0  0
  7 18  1  0  0  0  0
 12 13  1  0  0  0  0
  6 35  2  0  0  0  0
 20 30  1  0  0  0  0
 20 31  1  0  0  0  0
 18 29  1  0  0  0  0
  4 29  1  0  0  0  0
 23 24  1  0  0  0  0
 23 26  1  0  0  0  0
 23 25  1  0  0  0  0
  4 26  1  0  0  0  0
 18 34  2  0  0  0  0
  4  6  1  0  0  0  0
  6 28  1  0  0  0  0
 12 31  1  0  0  0  0
 12 15  1  0  0  0  0
 12 14  1  0  0  0  0
  1  3  1  0  0  0  0
  1 27  1  0  0  0  0
  3 33  1  0  0  0  0
 19 28  1  0  0  0  0
 17 19  1  0  0  0  0
  2 19  1  0  0  0  0
 17 32  2  0  0  0  0
  2 27  1  0  0  0  0
  5 27  1  0  0  0  0
  5 33  1  0  0  0  0
  5 36  2  0  0  0  0
  1 37  1  0  0  0  0
  1 38  1  0  0  0  0
  2 39  1  0  0  0  0
  2 40  1  0  0  0  0
  3 41  1  0  0  0  0
  3 42  1  0  0  0  0
  4 43  1  0  0  0  0
  7 44  1  0  0  0  0
  9 45  1  0  0  0  0
  9 46  1  0  0  0  0
  9 47  1  0  0  0  0
 10 48  1  0  0  0  0
 10 49  1  0  0  0  0
 10 50  1  0  0  0  0
 11 51  1  0  0  0  0
 11 52  1  0  0  0  0
 11 53  1  0  0  0  0
 13 54  1  0  0  0  0
 13 55  1  0  0  0  0
 13 56  1  0  0  0  0
 14 57  1  0  0  0  0
 14 58  1  0  0  0  0
 14 59  1  0  0  0  0
 15 60  1  0  0  0  0
 15 61  1  0  0  0  0
 15 62  1  0  0  0  0
 17 63  1  0  0  0  0
 19 64  1  0  0  0  0
 21 65  1  0  0  0  0
 21 66  1  0  0  0  0
 22 67  1  0  0  0  0
 24 68  1  0  0  0  0
 24 69  1  0  0  0  0
 24 70  1  0  0  0  0
 25 71  1  0  0  0  0
 25 72  1  0  0  0  0
 25 73  1  0  0  0  0
 26 74  1  0  0  0  0
 27 75  1  0  0  0  0
 28 76  1  0  0  0  0
 30 77  1  0  0  0  0
 31 78  1  0  0  0  0
 32 79  1  0  0  0  0
 33 80  1  0  0  0  0
M  END
> <OPENEYE_ISO_SMILES>
[H]/N=C/[C@H](C[C@@H]1CCNC1=O)NC(=O)[C@@H]2[C@@H]3[C@@H](C3(C)C)CN2C(=O)[C@H](C(C)(C)C)NC(=O)NC(C)(C)C

> <OPENEYE_INCHI>
InChI=1S/C26H44N6O4/c1-24(2,3)19(30-23(36)31-25(4,5)6)22(35)32-13-16-17(26(16,7)8)18(32)21(34)29-15(12-27)11-14-9-10-28-20(14)33/h12,14-19,27H,9-11,13H2,1-8H3,(H,28,33)(H,29,34)(H2,30,31,36)/b27-12+/t14-,15-,16-,17-,18-,19+/m0/s1

> <OPENEYE_INCHIKEY>
NJQHWGAQENWSGZ-HWXAPNOISA-N

> <FORMULA>
C26H44N6O4

$$$$
