@<TRIPOS>MOLECULE
/home/pku/3cl/gett_pdb/7TQ6/7TQ6_mol2/ligand/7TQ6_IT3.pdb
 29 30 0 0 0
SMALL
GASTEIGER

@<TRIPOS>ATOM
      1  C15       14.4080   22.3050   27.7770 C.3   401  IT3401      0.0022
      2  C19       10.7910   24.1690   26.0470 C.2   401  IT3401      0.4215
      3  C22        9.5500   27.5600   24.7260 C.3   401  IT3401      0.0482
      4  C16       14.8060   21.5050   26.5340 C.3   401  IT3401      0.0001
      5  C17       15.5250   22.2080   28.8710 C.3   401  IT3401      0.0001
      6  C24        9.8320   28.0870   23.3230 C.3   401  IT3401      0.0085
      7  C25       11.5600   29.3700   24.8780 C.2   401  IT3401     -0.0309
      8  C26       12.6900   29.2710   25.9480 C.2   401  IT3401     -0.0304
      9  C27       13.1870   30.5820   26.5910 C.3   401  IT3401      0.0303
     10  O28       10.2120   23.3830   25.3030 O.2   401  IT3401     -0.2246
     11  N11       10.0210   20.4600   27.4110 N.am  401  IT3401     -0.2030
     12  C01        9.0360   18.4760   28.4540 C.3   401  IT3401      0.2036
     13  C03        8.7610   19.8820   27.8430 C.3   401  IT3401      0.1287
     14  C04        7.7500   19.7580   26.6770 C.3   401  IT3401      0.0335
     15  C05        7.3600   21.1010   26.0570 C.3   401  IT3401      0.0818
     16  C06        6.3910   21.0500   24.8820 C.2   401  IT3401      0.2410
     17  C08        5.4780   22.6710   26.2850 C.3   401  IT3401      0.1156
     18  C09        6.5280   21.8780   27.0810 C.3   401  IT3401      0.0326
     19  C12       10.4790   21.7030   27.7520 C.2   401  IT3401      0.2614
     20  C13       11.8630   22.2560   27.2270 C.3   401  IT3401      0.1761
     21  C14       12.9790   21.9380   28.2680 C.3   401  IT3401      0.0312
     22  C21        9.4240   26.0180   25.0620 C.3   401  IT3401      0.2104
     23  C23       10.9810   28.0600   24.3180 C.3   401  IT3401      0.0254
     24  N07        5.3300   21.9390   25.0340 N.am  401  IT3401     -0.2054
     25  N18       11.7550   23.6940   26.9260 N.am  401  IT3401     -0.1611
     26  O02        7.8260   17.9390   28.9460 O.3   401  IT3401     -0.2185
     27  O10        6.5490   20.2990   23.9370 O.2   401  IT3401     -0.2734
     28  O20       10.4410   25.5060   25.9830 O.3   401  IT3401     -0.4335
     29  O29        9.8070   22.4450   28.4630 O.2   401  IT3401     -0.2715
@<TRIPOS>BOND
     1     6    23    1
     2     6     3    1
     3    27    16    2
     4    23     3    1
     5    23     7    1
     6     3    22    1
     7     7     8    2
     8    16    24   am
     9    16    15    1
    10    24    17    1
    11    22    28    1
    12    10     2    2
    13     8     9    1
    14    28     2    1
    15     2    25   am
    16    15    14    1
    17    15    18    1
    18    17    18    1
    19     4     1    1
    20    14    13    1
    21    25    20    1
    22    20    19    1
    23    20    21    1
    24    11    19   am
    25    11    13    1
    26    19    29    2
    27     1    21    1
    28     1     5    1
    29    13    12    1
    30    12    26    1
