@<TRIPOS>MOLECULE
/home/pku/3cl/gett_pdb/7TIA/7TIA_mol2/ligand/7TIA_XTP.pdb
 29 31 0 0 0
SMALL
GASTEIGER

@<TRIPOS>ATOM
      1  C10      -12.4130   12.5520   63.9870 C.2   401  XTP401      0.2410
      2  C15      -12.2050   15.0290   70.9380 C.3   401  XTP401      0.0312
      3  C17      -14.5150   14.4980   72.0290 C.3   401  XTP401      0.0001
      4  C20      -11.6090   11.7050   69.3690 C.2   401  XTP401      0.4218
      5  C22      -10.8640    9.5460   68.9030 C.3   401  XTP401      0.2368
      6  C24       -9.6790    8.6240   66.8480 C.ar  401  XTP401     -0.0007
      7  C26       -7.8420    9.7950   65.8140 C.ar  401  XTP401     -0.0000
      8  C28       -8.9120   10.7260   67.7540 C.ar  401  XTP401     -0.0007
      9  C02      -11.5840   14.5640   68.5220 C.2   401  XTP401      0.2614
     10  C04      -11.7450   15.5960   66.3250 C.3   401  XTP401      0.1287
     11  C05      -12.3370   14.8060   65.1390 C.3   401  XTP401      0.0335
     12  C06      -11.7580   13.3440   65.1000 C.3   401  XTP401      0.0818
     13  C07      -10.3050   13.3780   64.8120 C.3   401  XTP401      0.0326
     14  C08      -10.0810   12.1630   63.9220 C.3   401  XTP401      0.1156
     15  C12      -12.0860   17.0770   66.2150 C.3   401  XTP401      0.2036
     16  C14      -12.2840   14.0250   69.7780 C.3   401  XTP401      0.1761
     17  C16      -12.9910   14.4270   72.1330 C.3   401  XTP401      0.0022
     18  C18      -13.7740   15.4270   73.0150 C.3   401  XTP401      0.0001
     19  C23       -9.7810    9.6380   67.7980 C.ar  401  XTP401      0.0213
     20  C25       -8.7080    8.7040   65.8560 C.ar  401  XTP401     -0.0002
     21  C27       -7.9430   10.8060   66.7630 C.ar  401  XTP401     -0.0002
     22  N03      -12.3330   15.0690   67.5540 N.am  401  XTP401     -0.2030
     23  N09      -11.4630   11.8820   63.3260 N.am  401  XTP401     -0.2054
     24  N19      -11.6410   12.7800   70.1630 N.am  401  XTP401     -0.1611
     25  O01      -10.3850   14.5170   68.4200 O.2   401  XTP401     -0.2715
     26  O11      -13.5940   12.5060   63.7300 O.2   401  XTP401     -0.2734
     27  O13      -11.5200   17.7070   65.0930 O.3   401  XTP401     -0.2185
     28  O21      -10.8380   10.6960   69.7360 O.3   401  XTP401     -0.4285
     29  O29      -12.2610   11.6470   68.3450 O.2   401  XTP401     -0.2245
@<TRIPOS>BOND
     1    23    14    1
     2    23     1   am
     3    26     1    2
     4    14    13    1
     5     1    12    1
     6    13    12    1
     7    27    15    1
     8    12    11    1
     9    11    10    1
    10     7    20   ar
    11     7    21   ar
    12    20     6   ar
    13    15    10    1
    14    10    22    1
    15    21     8   ar
    16     6    19   ar
    17    22     9   am
    18     8    19   ar
    19    19     5    1
    20    29     4    2
    21    25     9    2
    22     9    16    1
    23     5    28    1
    24     4    28    1
    25     4    24   am
    26    16    24    1
    27    16     2    1
    28     2    17    1
    29     3    17    1
    30     3    18    1
    31    17    18    1
