VHP
  -OEChem-02242320043D

 86 87  0     1  0  0  0  0  0999 V2000
    9.5380   -1.3790   -1.8000 C   0  0  0  0  0  0  0  0  0  0  0  0
   -0.9720    3.1340   -0.0990 C   0  0  0  0  0  0  0  0  0  0  0  0
    1.6530    0.5670    0.9990 C   0  0  2  0  0  0  0  0  0  0  0  0
    0.4220   -0.0340    0.3720 C   0  0  0  0  0  0  0  0  0  0  0  0
    0.4140    4.1160   -1.9310 C   0  0  0  0  0  0  0  0  0  0  0  0
   -1.9160   -0.7140    0.4850 C   0  0  2  0  0  0  0  0  0  0  0  0
   -3.1730   -0.0910    1.0330 C   0  0  0  0  0  0  0  0  0  0  0  0
    0.8360    4.7700    0.4440 C   0  0  0  0  0  0  0  0  0  0  0  0
   -5.6010    0.0440    1.1890 C   0  0  1  0  0  0  0  0  0  0  0  0
    2.8130    2.7050    1.5720 C   0  0  0  0  0  0  0  0  0  0  0  0
   -6.7550   -0.1920    0.2120 C   0  0  0  0  0  0  0  0  0  0  0  0
    9.2670   -0.0720   -1.4380 C   0  0  0  0  0  0  0  0  0  0  0  0
   -6.4740    0.5480   -1.0980 C   0  0  2  0  0  0  0  0  0  0  0  0
   -7.6410    0.3500   -2.0920 C   0  0  0  0  0  0  0  0  0  0  0  0
   -7.1530   -0.8630   -2.9140 C   0  0  0  0  0  0  0  0  0  0  0  0
   -5.2800   -0.0580   -1.8020 C   0  0  0  0  0  0  0  0  0  0  0  0
   -5.9390   -0.5910    2.5390 C   0  0  0  0  0  0  0  0  0  0  0  0
    8.2330    0.2020   -0.5620 C   0  0  0  0  0  0  0  0  0  0  0  0
    1.5370    2.0930    0.9900 C   0  0  1  0  0  0  0  0  0  0  0  0
   -1.8700   -2.1940    0.8690 C   0  0  0  0  0  0  0  0  0  0  0  0
   -0.6590   -2.8560    0.2090 C   0  0  0  0  0  0  0  0  0  0  0  0
   -0.5420   -4.3030    0.6920 C   0  0  0  0  0  0  0  0  0  0  0  0
   -0.8330   -2.8380   -1.3110 C   0  0  0  0  0  0  0  0  0  0  0  0
    7.4700   -0.8310   -0.0480 C   0  0  0  0  0  0  0  0  0  0  0  0
    7.7410   -2.1370   -0.4110 C   0  0  0  0  0  0  0  0  0  0  0  0
    8.7710   -2.4100   -1.2910 C   0  0  0  0  0  0  0  0  0  0  0  0
    6.3440   -0.5320    0.9070 C   0  0  0  0  0  0  0  0  0  0  0  0
    0.4260    3.6230   -0.4820 C   0  0  0  0  0  0  0  0  0  0  0  0
    4.0080   -0.0430    0.8700 C   0  0  0  0  0  0  0  0  0  0  0  0
    2.8360    0.1630    0.2370 N   0  0  0  0  0  0  0  0  0  0  0  0
   -0.7480   -0.0290    1.0430 N   0  0  0  0  0  0  0  0  0  0  0  0
   -4.3780   -0.5620    0.6560 N   0  0  0  0  0  0  0  0  0  0  0  0
   -5.6880   -0.8380   -2.8170 N   0  0  0  0  0  0  0  0  0  0  0  0
   -4.1220    0.1340   -1.4960 O   0  0  0  0  0  0  0  0  0  0  0  0
   -6.2520   -1.9730    2.3510 O   0  0  0  0  0  0  0  0  0  0  0  0
    4.0640    0.0240    2.0820 O   0  0  0  0  0  0  0  0  0  0  0  0
    1.3590    2.5490   -0.3520 O   0  0  0  0  0  0  0  0  0  0  0  0
    0.4830   -0.5230   -0.7360 O   0  0  0  0  0  0  0  0  0  0  0  0
   -3.1010    0.8350    1.8130 O   0  0  0  0  0  0  0  0  0  0  0  0
    5.1170   -0.3220    0.1590 O   0  0  0  0  0  0  0  0  0  0  0  0
   10.3460   -1.5930   -2.4840 H   0  0  0  0  0  0  0  0  0  0  0  0
   -1.6790    3.9610   -0.1700 H   0  0  0  0  0  0  0  0  0  0  0  0
   -1.2770    2.3360   -0.7760 H   0  0  0  0  0  0  0  0  0  0  0  0
   -0.9570    2.7570    0.9240 H   0  0  0  0  0  0  0  0  0  0  0  0
    1.7460    0.2160    2.0270 H   0  0  0  0  0  0  0  0  0  0  0  0
    1.4100    4.4650   -2.2040 H   0  0  0  0  0  0  0  0  0  0  0  0
    0.1210    3.2990   -2.5900 H   0  0  0  0  0  0  0  0  0  0  0  0
   -0.2980    4.9360   -2.0300 H   0  0  0  0  0  0  0  0  0  0  0  0
   -1.9070   -0.6210   -0.6010 H   0  0  0  0  0  0  0  0  0  0  0  0
    0.7690    4.4420    1.4810 H   0  0  0  0  0  0  0  0  0  0  0  0
    1.8620    5.0660    0.2220 H   0  0  0  0  0  0  0  0  0  0  0  0
    0.1710    5.6190    0.2870 H   0  0  0  0  0  0  0  0  0  0  0  0
   -5.4490    1.1150    1.3190 H   0  0  0  0  0  0  0  0  0  0  0  0
    3.6520    2.4920    0.9100 H   0  0  0  0  0  0  0  0  0  0  0  0
    2.6880    3.7840    1.6650 H   0  0  0  0  0  0  0  0  0  0  0  0
    3.0070    2.2750    2.5550 H   0  0  0  0  0  0  0  0  0  0  0  0
   -6.8500   -1.2600    0.0130 H   0  0  0  0  0  0  0  0  0  0  0  0
   -7.6820    0.1800    0.6480 H   0  0  0  0  0  0  0  0  0  0  0  0
    9.8630    0.7340   -1.8390 H   0  0  0  0  0  0  0  0  0  0  0  0
   -6.3070    1.6080   -0.9070 H   0  0  0  0  0  0  0  0  0  0  0  0
   -8.5670    0.1180   -1.5660 H   0  0  0  0  0  0  0  0  0  0  0  0
   -7.7650    1.2270   -2.7280 H   0  0  0  0  0  0  0  0  0  0  0  0
   -7.5430   -1.7880   -2.4890 H   0  0  0  0  0  0  0  0  0  0  0  0
   -7.4650   -0.7650   -3.9540 H   0  0  0  0  0  0  0  0  0  0  0  0
   -5.0820   -0.5010    3.2070 H   0  0  0  0  0  0  0  0  0  0  0  0
   -6.7960   -0.0800    2.9770 H   0  0  0  0  0  0  0  0  0  0  0  0
    8.0210    1.2220   -0.2790 H   0  0  0  0  0  0  0  0  0  0  0  0
    0.6810    2.3950    1.5930 H   0  0  0  0  0  0  0  0  0  0  0  0
   -1.7890   -2.2860    1.9520 H   0  0  0  0  0  0  0  0  0  0  0  0
   -2.7820   -2.6860    0.5300 H   0  0  0  0  0  0  0  0  0  0  0  0
    0.2450   -2.3090    0.4780 H   0  0  0  0  0  0  0  0  0  0  0  0
    0.3210   -4.7750    0.2220 H   0  0  0  0  0  0  0  0  0  0  0  0
   -0.4180   -4.3160    1.7750 H   0  0  0  0  0  0  0  0  0  0  0  0
   -1.4460   -4.8500    0.4240 H   0  0  0  0  0  0  0  0  0  0  0  0
   -1.7370   -3.3850   -1.5790 H   0  0  0  0  0  0  0  0  0  0  0  0
   -0.9160   -1.8070   -1.6550 H   0  0  0  0  0  0  0  0  0  0  0  0
    0.0300   -3.3090   -1.7810 H   0  0  0  0  0  0  0  0  0  0  0  0
    7.1460   -2.9430   -0.0090 H   0  0  0  0  0  0  0  0  0  0  0  0
    8.9830   -3.4310   -1.5740 H   0  0  0  0  0  0  0  0  0  0  0  0
    6.2140   -1.3720    1.5900 H   0  0  0  0  0  0  0  0  0  0  0  0
    6.5800    0.3670    1.4770 H   0  0  0  0  0  0  0  0  0  0  0  0
    2.7770    0.0430   -0.7240 H   0  0  0  0  0  0  0  0  0  0  0  0
   -0.8150    0.4290    1.8950 H   0  0  0  0  0  0  0  0  0  0  0  0
   -4.4360   -1.3030    0.0320 H   0  0  0  0  0  0  0  0  0  0  0  0
   -5.0920   -1.3220   -3.4100 H   0  0  0  0  0  0  0  0  0  0  0  0
   -6.4770   -2.4400    3.1670 H   0  0  0  0  0  0  0  0  0  0  0  0
 24 27  1  0  0  0  0
 27 40  1  0  0  0  0
 21 22  1  0  0  0  0
 24 25  2  0  0  0  0
 25 26  1  0  0  0  0
 18 24  1  0  0  0  0
  1 26  2  0  0  0  0
 29 40  1  0  0  0  0
 21 23  1  0  0  0  0
 20 21  1  0  0  0  0
 12 18  2  0  0  0  0
 29 36  2  0  0  0  0
  1 12  1  0  0  0  0
 29 30  1  0  0  0  0
  6 20  1  0  0  0  0
  3 30  1  0  0  0  0
  6 31  1  0  0  0  0
  4 31  1  0  0  0  0
  6  7  1  0  0  0  0
  3  4  1  0  0  0  0
  3 19  1  0  0  0  0
  4 38  2  0  0  0  0
 19 37  1  0  0  0  0
 28 37  1  0  0  0  0
  7 39  2  0  0  0  0
  7 32  1  0  0  0  0
  8 28  1  0  0  0  0
 10 19  1  0  0  0  0
  9 32  1  0  0  0  0
  2 28  1  0  0  0  0
  5 28  1  0  0  0  0
  9 17  1  0  0  0  0
 17 35  1  0  0  0  0
  9 11  1  0  0  0  0
 11 13  1  0  0  0  0
 13 16  1  0  0  0  0
 13 14  1  0  0  0  0
 16 34  2  0  0  0  0
 16 33  1  0  0  0  0
 14 15  1  0  0  0  0
 15 33  1  0  0  0  0
  1 41  1  0  0  0  0
  2 42  1  0  0  0  0
  2 43  1  0  0  0  0
  2 44  1  0  0  0  0
  3 45  1  0  0  0  0
  5 46  1  0  0  0  0
  5 47  1  0  0  0  0
  5 48  1  0  0  0  0
  6 49  1  0  0  0  0
  8 50  1  0  0  0  0
  8 51  1  0  0  0  0
  8 52  1  0  0  0  0
  9 53  1  0  0  0  0
 10 54  1  0  0  0  0
 10 55  1  0  0  0  0
 10 56  1  0  0  0  0
 11 57  1  0  0  0  0
 11 58  1  0  0  0  0
 12 59  1  0  0  0  0
 13 60  1  0  0  0  0
 14 61  1  0  0  0  0
 14 62  1  0  0  0  0
 15 63  1  0  0  0  0
 15 64  1  0  0  0  0
 17 65  1  0  0  0  0
 17 66  1  0  0  0  0
 18 67  1  0  0  0  0
 19 68  1  0  0  0  0
 20 69  1  0  0  0  0
 20 70  1  0  0  0  0
 21 71  1  0  0  0  0
 22 72  1  0  0  0  0
 22 73  1  0  0  0  0
 22 74  1  0  0  0  0
 23 75  1  0  0  0  0
 23 76  1  0  0  0  0
 23 77  1  0  0  0  0
 25 78  1  0  0  0  0
 26 79  1  0  0  0  0
 27 80  1  0  0  0  0
 27 81  1  0  0  0  0
 30 82  1  0  0  0  0
 31 83  1  0  0  0  0
 32 84  1  0  0  0  0
 33 85  1  0  0  0  0
 35 86  1  0  0  0  0
M  END
> <OPENEYE_ISO_SMILES>
C[C@H]([C@@H](C(=O)N[C@@H](CC(C)C)C(=O)N[C@@H](C[C@@H]1CCNC1=O)CO)NC(=O)OCc2ccccc2)OC(C)(C)C

> <OPENEYE_INCHI>
InChI=1S/C29H46N4O7/c1-18(2)14-23(26(36)31-22(16-34)15-21-12-13-30-25(21)35)32-27(37)24(19(3)40-29(4,5)6)33-28(38)39-17-20-10-8-7-9-11-20/h7-11,18-19,21-24,34H,12-17H2,1-6H3,(H,30,35)(H,31,36)(H,32,37)(H,33,38)/t19-,21+,22+,23+,24+/m1/s1

> <OPENEYE_INCHIKEY>
AWESOLQTDOBPDY-FFYZIMEISA-N

> <FORMULA>
C29H46N4O7

$$$$
