P6S
  -OEChem-02242320033D

 19 19  0     0  0  0  0  0  0999 V2000
   -0.5310   -0.0050   -0.8210 C   0  0  0  0  0  0  0  0  0  0  0  0
    0.9120   -0.0020   -0.3870 C   0  0  0  0  0  0  0  0  0  0  0  0
    2.8960    1.1990    0.2070 C   0  0  0  0  0  0  0  0  0  0  0  0
    2.8980   -1.1960    0.2170 C   0  0  0  0  0  0  0  0  0  0  0  0
   -2.7170    0.0010    0.1350 C   0  0  0  0  0  0  0  0  0  0  0  0
    1.5720    1.1960   -0.1910 C   0  0  0  0  0  0  0  0  0  0  0  0
    3.5590    0.0030    0.4090 C   0  0  0  0  0  0  0  0  0  0  0  0
    1.5740   -1.1980   -0.1810 C   0  0  0  0  0  0  0  0  0  0  0  0
   -1.3890    0.0020    0.3500 O   0  0  0  0  0  0  0  0  0  0  0  0
   -3.1480   -0.0070   -1.0000 O   0  0  0  0  0  0  0  0  0  0  0  0
   -0.7310    0.8810   -1.4240 H   0  0  0  0  0  0  0  0  0  0  0  0
   -0.7310   -0.8990   -1.4120 H   0  0  0  0  0  0  0  0  0  0  0  0
    3.4130    2.1350    0.3570 H   0  0  0  0  0  0  0  0  0  0  0  0
    3.4150   -2.1300    0.3790 H   0  0  0  0  0  0  0  0  0  0  0  0
    1.0540    2.1300   -0.3490 H   0  0  0  0  0  0  0  0  0  0  0  0
    4.5940    0.0050    0.7200 H   0  0  0  0  0  0  0  0  0  0  0  0
    1.0570   -2.1350   -0.3300 H   0  0  0  0  0  0  0  0  0  0  0  0
   -3.5670    0.0070    1.1780 O   0  0  0  0  0  0  0  0  0  0  0  0
   -4.5120    0.0060    0.9730 H   0  0  0  0  0  0  0  0  0  0  0  0
  1  9  1  0  0  0  0
  1  2  1  0  0  0  0
  2  8  2  0  0  0  0
  2  6  1  0  0  0  0
  3  7  1  0  0  0  0
  3  6  2  0  0  0  0
  4  8  1  0  0  0  0
  4  7  2  0  0  0  0
  5  9  1  0  0  0  0
  5 10  2  0  0  0  0
  1 11  1  0  0  0  0
  1 12  1  0  0  0  0
  3 13  1  0  0  0  0
  4 14  1  0  0  0  0
  6 15  1  0  0  0  0
  7 16  1  0  0  0  0
  8 17  1  0  0  0  0
  5 18  1  0  0  0  0
 18 19  1  0  0  0  0
M  END
> <OPENEYE_ISO_SMILES>
c1ccc(cc1)COC(=O)O

> <OPENEYE_INCHI>
InChI=1S/C8H8O3/c9-8(10)11-6-7-4-2-1-3-5-7/h1-5H,6H2,(H,9,10)

> <OPENEYE_INCHIKEY>
NJAPCAIWQRPQPY-UHFFFAOYSA-N

> <FORMULA>
C8H8O3

$$$$
