UZ1
  -OEChem-02242320043D

 11 11  0     0  0  0  0  0  0999 V2000
    1.4930    0.0150   -0.2210 N   0  0  0  0  0  0  0  0  0  0  0  0
    0.2110    0.0320    0.4960 C   0  0  0  0  0  0  0  0  0  0  0  0
   -0.9620    0.7540   -0.1690 C   0  0  0  0  0  0  0  0  0  0  0  0
   -0.9440   -0.7740   -0.1020 C   0  0  0  0  0  0  0  0  0  0  0  0
    2.1820    0.5760    0.2570 H   0  0  0  0  0  0  0  0  0  0  0  0
    1.8220   -0.9300   -0.3520 H   0  0  0  0  0  0  0  0  0  0  0  0
    0.2810    0.0800    1.5830 H   0  0  0  0  0  0  0  0  0  0  0  0
   -1.6640    1.2780    0.4800 H   0  0  0  0  0  0  0  0  0  0  0  0
   -0.7830    1.2180   -1.1390 H   0  0  0  0  0  0  0  0  0  0  0  0
   -0.7530   -1.3160   -1.0280 H   0  0  0  0  0  0  0  0  0  0  0  0
   -1.6340   -1.2560    0.5910 H   0  0  0  0  0  0  0  0  0  0  0  0
  1  2  1  0  0  0  0
  2  4  1  0  0  0  0
  2  3  1  0  0  0  0
  3  4  1  0  0  0  0
  1  5  1  0  0  0  0
  1  6  1  0  0  0  0
  2  7  1  0  0  0  0
  3  8  1  0  0  0  0
  3  9  1  0  0  0  0
  4 10  1  0  0  0  0
  4 11  1  0  0  0  0
M  END
> <OPENEYE_ISO_SMILES>
C1CC1N

> <OPENEYE_INCHI>
InChI=1S/C3H7N/c4-3-1-2-3/h3H,1-2,4H2

> <OPENEYE_INCHIKEY>
HTJDQJBWANPRPF-UHFFFAOYSA-N

> <FORMULA>
C3H7N

$$$$
