UZ4
  -OEChem-02242320043D

 28 28  0     1  0  0  0  0  0999 V2000
    1.0110    0.0830    1.5720 N   0  0  0  0  0  0  0  0  0  0  0  0
    0.7790   -0.1640    0.1430 C   0  0  1  0  0  0  0  0  0  0  0  0
   -0.4950    0.5580   -0.3000 C   0  0  0  0  0  0  0  0  0  0  0  0
   -1.7030   -0.0580    0.4100 C   0  0  2  0  0  0  0  0  0  0  0  0
   -1.9060   -1.5220   -0.0420 C   0  0  0  0  0  0  0  0  0  0  0  0
   -3.4470   -1.6330   -0.0670 C   0  0  0  0  0  0  0  0  0  0  0  0
   -3.9340   -0.2640   -0.2770 N   0  0  0  0  0  0  0  0  0  0  0  0
   -2.9770    0.6410   -0.0110 C   0  0  0  0  0  0  0  0  0  0  0  0
   -3.1150    1.8430   -0.0950 O   0  0  0  0  0  0  0  0  0  0  0  0
    1.9690    0.3600   -0.6650 C   0  0  1  0  0  0  0  0  0  0  0  0
    2.1150    1.7640   -0.4410 O   0  0  0  0  0  0  0  0  0  0  0  0
    3.2240   -0.3510   -0.2290 C   0  0  0  0  0  0  0  0  0  0  0  0
    4.1120    0.2660    0.3090 O   0  0  0  0  0  0  0  0  0  0  0  0
    1.0130    1.0720    1.7730 H   0  0  0  0  0  0  0  0  0  0  0  0
    0.3290   -0.3990    2.1380 H   0  0  0  0  0  0  0  0  0  0  0  0
    0.6680   -1.2340   -0.0280 H   0  0  0  0  0  0  0  0  0  0  0  0
   -0.4220    1.6150   -0.0410 H   0  0  0  0  0  0  0  0  0  0  0  0
   -0.6150    0.4550   -1.3780 H   0  0  0  0  0  0  0  0  0  0  0  0
   -1.5760   -0.0060    1.4910 H   0  0  0  0  0  0  0  0  0  0  0  0
   -1.4870   -1.6860   -1.0350 H   0  0  0  0  0  0  0  0  0  0  0  0
   -1.4770   -2.2170    0.6800 H   0  0  0  0  0  0  0  0  0  0  0  0
   -3.7660   -2.2760   -0.8870 H   0  0  0  0  0  0  0  0  0  0  0  0
   -3.8130   -2.0240    0.8820 H   0  0  0  0  0  0  0  0  0  0  0  0
   -4.8320   -0.0410   -0.5690 H   0  0  0  0  0  0  0  0  0  0  0  0
    1.7970    0.1770   -1.7250 H   0  0  0  0  0  0  0  0  0  0  0  0
    2.2710    2.0010    0.4830 H   0  0  0  0  0  0  0  0  0  0  0  0
    3.3550   -1.6700   -0.4390 O   0  0  0  0  0  0  0  0  0  0  0  0
    4.1780   -2.0820   -0.1420 H   0  0  0  0  0  0  0  0  0  0  0  0
  8  9  2  0  0  0  0
  7  8  1  0  0  0  0
  4  8  1  0  0  0  0
  6  7  1  0  0  0  0
  3  4  1  0  0  0  0
  4  5  1  0  0  0  0
  5  6  1  0  0  0  0
  2  3  1  0  0  0  0
  1  2  1  0  0  0  0
  2 10  1  0  0  0  0
 10 11  1  0  0  0  0
 10 12  1  0  0  0  0
 12 13  2  0  0  0  0
  1 14  1  0  0  0  0
  1 15  1  0  0  0  0
  2 16  1  0  0  0  0
  3 17  1  0  0  0  0
  3 18  1  0  0  0  0
  4 19  1  0  0  0  0
  5 20  1  0  0  0  0
  5 21  1  0  0  0  0
  6 22  1  0  0  0  0
  6 23  1  0  0  0  0
  7 24  1  0  0  0  0
 10 25  1  0  0  0  0
 11 26  1  0  0  0  0
 12 27  1  0  0  0  0
 27 28  1  0  0  0  0
M  END
> <OPENEYE_ISO_SMILES>
C1CNC(=O)[C@@H]1C[C@@H]([C@H](C(=O)O)O)N

> <OPENEYE_INCHI>
InChI=1S/C8H14N2O4/c9-5(6(11)8(13)14)3-4-1-2-10-7(4)12/h4-6,11H,1-3,9H2,(H,10,12)(H,13,14)/t4-,5-,6+/m0/s1

> <OPENEYE_INCHIKEY>
YERLKFCTXVNUDF-HCWXCVPCSA-N

> <FORMULA>
C8H14N2O4

$$$$
