@<TRIPOS>MOLECULE
/home/pku/3cl/gett_pdb/7N8C/7N8C_mol2/ligand/7N8C_YD1.pdb
 39 41 0 0 0
SMALL
GASTEIGER

@<TRIPOS>ATOM
      1  C1       -15.2040  -40.3190  -16.6260 C.ar  401  YD1401      0.1109
      2  C2       -14.7230  -39.1570  -17.4350 C.2   401  YD1401      0.2633
      3  C5       -12.6260  -40.4100  -18.1380 C.3   401  YD1401      0.0293
      4  C6       -11.2290  -39.9940  -17.6990 C.3   401  YD1401      0.0113
      5  C8       -11.5850  -37.7340  -18.5010 C.3   401  YD1401      0.0113
      6  C9       -13.0440  -38.0780  -18.8250 C.3   401  YD1401      0.0293
      7  C12       -7.2730  -37.5600  -19.3320 C.ar  401  YD1401     -0.0403
      8  C14       -7.1020  -39.1570  -17.4590 C.ar  401  YD1401      0.0609
      9  C10       -9.3260  -38.6780  -18.5000 C.ar  401  YD1401      0.0150
     10  C11       -8.6680  -37.7660  -19.3960 C.ar  401  YD1401     -0.0407
     11  C13       -6.4630  -38.2400  -18.3880 C.ar  401  YD1401      0.0594
     12  C16       -8.5010  -39.3700  -17.5240 C.ar  401  YD1401     -0.0223
     13  C19      -16.4430  -42.4180  -16.8330 C.ar  401  YD1401      0.3273
     14  C22      -15.4970  -41.6600  -14.6370 C.ar  401  YD1401      0.2547
     15  C24      -14.9860  -40.4770  -15.3010 C.ar  401  YD1401      0.0314
     16  N18      -15.9090  -41.2580  -17.3630 N.ar  401  YD1401     -0.3034
     17  N21      -16.1940  -42.5600  -15.4680 N.ar  401  YD1401     -0.2751
     18  N4       -13.5300  -39.2440  -18.0620 N.am  401  YD1401     -0.2935
     19  N7       -10.7430  -38.9110  -18.5880 N.pl3 401  YD1401     -0.3909
     20  O20      -17.0630  -43.2400  -17.5150 O.2   401  YD1401     -0.2467
     21  O23      -15.3620  -41.9200  -13.4490 O.2   401  YD1401     -0.2677
     22  O3       -15.4590  -38.1670  -17.4620 O.2   401  YD1401     -0.2684
     23 CL15       -6.1920  -40.0510  -16.2380 Cl    401  YD1401     -0.0820
     24 CL17       -4.7340  -37.9360  -18.3940 Cl    401  YD1401     -0.0820
     25  H1       -12.9850  -41.1980  -17.4630 H     401  YD1401      0.0479
     26  H2       -12.6220  -40.7970  -19.1710 H     401  YD1401      0.0479
     27  H3       -11.2750  -39.6080  -16.6660 H     401  YD1401      0.0463
     28  H4       -10.5650  -40.8530  -17.7460 H     401  YD1401      0.0463
     29  H5       -11.2710  -37.0270  -19.2660 H     401  YD1401      0.0463
     30  H6       -11.5150  -37.2580  -17.5200 H     401  YD1401      0.0463
     31  H7       -13.6870  -37.1960  -18.5490 H     401  YD1401      0.0479
     32  H8       -13.1290  -38.3110  -19.9060 H     401  YD1401      0.0479
     33  H9        -6.8130  -36.8700  -20.0290 H     401  YD1401      0.0633
     34  H10       -9.2280  -37.2170  -20.1480 H     401  YD1401      0.0636
     35  H11       -8.9520  -40.0660  -16.8230 H     401  YD1401      0.0651
     36  H12      -14.4350  -39.7530  -14.7300 H     401  YD1401      0.0694
     37  D13      -16.0580  -41.1090  -18.3620 H     401  YD1401      0.1705
     38  D14      -16.5640  -43.4040  -15.0360 H     401  YD1401      0.1734
     39  D39      -10.7930  -39.2350  -19.5390 H     401  YD1401      0.1265
@<TRIPOS>BOND
     1    34    10    1
     2    33     7    1
     3    32     6    1
     4    39    19    1
     5    10     7   ar
     6    10     9   ar
     7     7    11   ar
     8    29     5    1
     9    26     3    1
    10     6    31    1
    11     6     5    1
    12     6    18    1
    13    19     5    1
    14    19     9    1
    15    19     4    1
    16     5    30    1
    17     9    12   ar
    18    24    11    1
    19    11     8   ar
    20    37    16    1
    21     3    18    1
    22     3     4    1
    23     3    25    1
    24    18     2   am
    25    28     4    1
    26     4    27    1
    27    12     8   ar
    28    12    35    1
    29    20    13    2
    30    22     2    2
    31     8    23    1
    32     2     1    1
    33    16    13   ar
    34    16     1   ar
    35    13    17   ar
    36     1    15   ar
    37    17    38    1
    38    17    14   ar
    39    15    36    1
    40    15    14   ar
    41    14    21    2
