@<TRIPOS>MOLECULE
/home/pku/3cl/gett_pdb/7JSU/7JSU_mol2/ligand/7JSU_UED.pdb
 29 30 0 0 0
SMALL
GASTEIGER

@<TRIPOS>ATOM
      1  C7       -10.7430    9.5640   69.1750 C.3   401  UED401      0.2368
      2  O8       -10.6470   10.6930   70.0030 O.3   401  UED401     -0.4285
      3  C9       -11.3920   11.7160   69.6250 C.2   401  UED401      0.4218
      4  O10      -12.0220   11.6590   68.6050 O.2   401  UED401     -0.2245
      5  C1        -9.6990    9.5640   68.0470 C.ar  401  UED401      0.0213
      6  C2        -8.7890   10.6120   67.8910 C.ar  401  UED401     -0.0007
      7  C3        -7.8490   10.5820   66.8630 C.ar  401  UED401     -0.0002
      8  C4        -7.8190    9.5030   65.9790 C.ar  401  UED401     -0.0000
      9  C5        -8.7260    8.4560   66.1330 C.ar  401  UED401     -0.0002
     10  C6        -9.6610    8.4890   67.1650 C.ar  401  UED401     -0.0007
     11  N11      -11.3950   12.7960   70.4060 N.am  401  UED401     -0.1611
     12  C12      -11.9870   14.0550   69.9930 C.3   401  UED401      0.1761
     13  C17      -11.3220   14.5500   68.7060 C.2   401  UED401      0.2614
     14  O18      -10.1470   14.4600   68.5390 O.2   401  UED401     -0.2715
     15  C13      -11.8190   15.1210   71.0870 C.3   401  UED401      0.0312
     16  C14      -12.3760   14.6530   72.4340 C.3   401  UED401      0.0022
     17  C15      -12.0780   15.7410   73.4680 C.3   401  UED401      0.0001
     18  C16      -13.8830   14.4460   72.3580 C.3   401  UED401      0.0001
     19  N19      -12.1030   15.0680   67.7640 N.am  401  UED401     -0.2030
     20  C20      -11.5710   15.5580   66.5080 C.3   401  UED401      0.1287
     21  C21      -11.9290   17.0420   66.4440 C.3   401  UED401      0.2036
     22  O22      -11.3170   17.6620   65.3540 O.3   401  UED401     -0.2185
     23  C24      -12.2160   14.7500   65.3630 C.3   401  UED401      0.0335
     24  C25      -11.6570   13.2890   65.4080 C.3   401  UED401      0.0818
     25  C26      -10.1590   13.2910   65.1520 C.3   401  UED401      0.0326
     26  C27       -9.9480   12.0610   64.2540 C.3   401  UED401      0.1156
     27  N28      -11.3350   11.7480   63.6540 N.am  401  UED401     -0.2054
     28  C29      -12.2880   12.4370   64.2920 C.2   401  UED401      0.2410
     29  O30      -13.4450   12.3900   64.0500 O.2   401  UED401     -0.2734
@<TRIPOS>BOND
     1    27    26    1
     2    27    28   am
     3    29    28    2
     4    26    25    1
     5    28    24    1
     6    25    24    1
     7    22    21    1
     8    23    24    1
     9    23    20    1
    10     8     9   ar
    11     8     7   ar
    12     9    10   ar
    13    21    20    1
    14    20    19    1
    15     7     6   ar
    16    10     5   ar
    17    19    13   am
    18     6     5   ar
    19     5     1    1
    20    14    13    2
    21     4     3    2
    22    13    12    1
    23     1     2    1
    24     3     2    1
    25     3    11   am
    26    12    11    1
    27    12    15    1
    28    15    16    1
    29    18    16    1
    30    16    17    1
