Y4V
  -OEChem-02242320043D

 78 81  0     1  0  0  0  0  0999 V2000
    2.2350    0.6920   -0.7330 C   0  0  0  0  0  0  0  0  0  0  0  0
   -0.1790    0.5990   -1.0500 C   0  0  1  0  0  0  0  0  0  0  0  0
   -0.3400    0.7560   -2.5630 C   0  0  0  0  0  0  0  0  0  0  0  0
   -1.6390    1.5060   -2.8630 C   0  0  0  0  0  0  0  0  0  0  0  0
   -1.5440    2.9300   -2.3130 C   0  0  0  0  0  0  0  0  0  0  0  0
   -1.8610    1.5570   -4.3760 C   0  0  0  0  0  0  0  0  0  0  0  0
   -1.2990   -0.2520   -0.5110 C   0  0  0  0  0  0  0  0  0  0  0  0
   -3.5650   -0.5050    0.3500 C   0  0  1  0  0  0  0  0  0  0  0  0
   -4.5670    0.4250    1.0370 C   0  0  0  0  0  0  0  0  0  0  0  0
   -3.8940    1.1090    2.2290 C   0  0  1  0  0  0  0  0  0  0  0  0
   -2.8040    2.0450    1.7570 C   0  0  0  0  0  0  0  0  0  0  0  0
   -4.6190    3.3940    2.2870 C   0  0  0  0  0  0  0  0  0  0  0  0
   -4.8970    2.0320    2.9600 C   0  0  0  0  0  0  0  0  0  0  0  0
   -4.2840   -1.3300   -0.7190 C   0  0  2  0  0  0  0  0  0  0  0  0
    4.5750    0.9760   -0.3570 C   0  0  0  0  0  0  0  0  0  0  0  0
    5.7920    0.1630    0.0880 C   0  0  0  0  0  0  0  0  0  0  0  0
    6.0090   -1.0010   -0.8810 C   0  0  0  0  0  0  0  0  0  0  0  0
    7.2250   -1.8150   -0.4360 C   0  0  0  0  0  0  0  0  0  0  0  0
    6.9860   -2.3620    0.9730 C   0  0  0  0  0  0  0  0  0  0  0  0
    6.7690   -1.1980    1.9420 C   0  0  0  0  0  0  0  0  0  0  0  0
    5.5520   -0.3840    1.4970 C   0  0  0  0  0  0  0  0  0  0  0  0
    8.0080   -0.3010    1.9470 C   0  0  0  0  0  0  0  0  0  0  0  0
    8.2480    0.2460    0.5390 C   0  0  0  0  0  0  0  0  0  0  0  0
    7.0310    1.0600    0.0940 C   0  0  0  0  0  0  0  0  0  0  0  0
    8.4650   -0.9180   -0.4300 C   0  0  0  0  0  0  0  0  0  0  0  0
    1.1060   -0.0420   -0.7590 N   0  0  0  0  0  0  0  0  0  0  0  0
   -2.5090    0.2940   -0.2780 N   0  0  0  0  0  0  0  0  0  0  0  0
   -3.2350    3.3170    1.8040 N   0  0  0  0  0  0  0  0  0  0  0  0
    2.2030    1.8680   -1.0380 O   0  0  0  0  0  0  0  0  0  0  0  0
   -1.7020    1.6980    1.3890 O   0  0  0  0  0  0  0  0  0  0  0  0
   -4.9840   -0.4540   -1.6060 O   0  0  0  0  0  0  0  0  0  0  0  0
   -1.1120   -1.4300   -0.2870 O   0  0  0  0  0  0  0  0  0  0  0  0
    3.3990    0.1250   -0.3620 O   0  0  0  0  0  0  0  0  0  0  0  0
   -0.2100    1.5810   -0.5770 H   0  0  0  0  0  0  0  0  0  0  0  0
    0.5050    1.3180   -2.9620 H   0  0  0  0  0  0  0  0  0  0  0  0
   -0.3730   -0.2290   -3.0290 H   0  0  0  0  0  0  0  0  0  0  0  0
   -2.4740    0.9890   -2.3910 H   0  0  0  0  0  0  0  0  0  0  0  0
   -2.4960    3.4410   -2.4610 H   0  0  0  0  0  0  0  0  0  0  0  0
   -1.3140    2.8940   -1.2480 H   0  0  0  0  0  0  0  0  0  0  0  0
   -0.7560    3.4710   -2.8370 H   0  0  0  0  0  0  0  0  0  0  0  0
   -1.9280    0.5430   -4.7680 H   0  0  0  0  0  0  0  0  0  0  0  0
   -2.7870    2.0920   -4.5900 H   0  0  0  0  0  0  0  0  0  0  0  0
   -1.0260    2.0740   -4.8480 H   0  0  0  0  0  0  0  0  0  0  0  0
   -3.1240   -1.1730    1.0890 H   0  0  0  0  0  0  0  0  0  0  0  0
   -4.9060    1.1810    0.3290 H   0  0  0  0  0  0  0  0  0  0  0  0
   -5.4210   -0.1550    1.3850 H   0  0  0  0  0  0  0  0  0  0  0  0
   -3.4880    0.3650    2.9150 H   0  0  0  0  0  0  0  0  0  0  0  0
   -5.3020    3.5480    1.4510 H   0  0  0  0  0  0  0  0  0  0  0  0
   -4.7210    4.2010    3.0120 H   0  0  0  0  0  0  0  0  0  0  0  0
   -5.9230    1.7110    2.7830 H   0  0  0  0  0  0  0  0  0  0  0  0
   -4.6820    2.0730    4.0280 H   0  0  0  0  0  0  0  0  0  0  0  0
   -3.5540   -1.9100   -1.2820 H   0  0  0  0  0  0  0  0  0  0  0  0
   -5.4650   -2.4530    0.0780 S   0  0  0  0  0  0  0  0  0  0  0  0
    4.4200    1.8060    0.3340 H   0  0  0  0  0  0  0  0  0  0  0  0
    4.7460    1.3660   -1.3600 H   0  0  0  0  0  0  0  0  0  0  0  0
    5.1260   -1.6400   -0.8850 H   0  0  0  0  0  0  0  0  0  0  0  0
    6.1800   -0.6120   -1.8840 H   0  0  0  0  0  0  0  0  0  0  0  0
    7.3800   -2.6450   -1.1260 H   0  0  0  0  0  0  0  0  0  0  0  0
    6.1030   -3.0010    0.9690 H   0  0  0  0  0  0  0  0  0  0  0  0
    7.8520   -2.9420    1.2900 H   0  0  0  0  0  0  0  0  0  0  0  0
    6.5980   -1.5880    2.9450 H   0  0  0  0  0  0  0  0  0  0  0  0
    5.3970    0.4450    2.1870 H   0  0  0  0  0  0  0  0  0  0  0  0
    4.6690   -1.0230    1.4930 H   0  0  0  0  0  0  0  0  0  0  0  0
    7.8530    0.5280    2.6380 H   0  0  0  0  0  0  0  0  0  0  0  0
    8.8750   -0.8810    2.2640 H   0  0  0  0  0  0  0  0  0  0  0  0
    9.1310    0.8850    0.5430 H   0  0  0  0  0  0  0  0  0  0  0  0
    7.2020    1.4490   -0.9100 H   0  0  0  0  0  0  0  0  0  0  0  0
    6.8760    1.8890    0.7840 H   0  0  0  0  0  0  0  0  0  0  0  0
    9.3320   -1.4980   -0.1130 H   0  0  0  0  0  0  0  0  0  0  0  0
    8.6360   -0.5290   -1.4340 H   0  0  0  0  0  0  0  0  0  0  0  0
    1.1430   -0.9960   -0.5850 H   0  0  0  0  0  0  0  0  0  0  0  0
   -2.6810    1.2160   -0.5260 H   0  0  0  0  0  0  0  0  0  0  0  0
   -2.7000    4.0860    1.5530 H   0  0  0  0  0  0  0  0  0  0  0  0
   -4.4130    0.1760   -2.0680 H   0  0  0  0  0  0  0  0  0  0  0  0
   -5.9040   -3.4460   -0.8390 O   0  0  0  0  0  0  0  0  0  0  0  0
   -4.6320   -3.2210    1.0940 O   0  0  0  0  0  0  0  0  0  0  0  0
   -6.3940   -1.7220    0.8670 O   0  0  0  0  0  0  0  0  0  0  0  0
   -5.1360   -3.8700    1.6050 H   0  0  0  0  0  0  0  0  0  0  0  0
 18 19  1  0  0  0  0
 19 20  1  0  0  0  0
 18 25  1  0  0  0  0
 17 18  1  0  0  0  0
 23 25  1  0  0  0  0
 20 22  1  0  0  0  0
 20 21  1  0  0  0  0
 22 23  1  0  0  0  0
 23 24  1  0  0  0  0
 16 17  1  0  0  0  0
 16 21  1  0  0  0  0
 16 24  1  0  0  0  0
 15 16  1  0  0  0  0
 15 33  1  0  0  0  0
  1 33  1  0  0  0  0
  1 26  1  0  0  0  0
  1 29  2  0  0  0  0
 12 13  1  0  0  0  0
 12 28  1  0  0  0  0
  2 26  1  0  0  0  0
  7 32  2  0  0  0  0
 10 13  1  0  0  0  0
 11 28  1  0  0  0  0
  2  7  1  0  0  0  0
  2  3  1  0  0  0  0
  7 27  1  0  0  0  0
 10 11  1  0  0  0  0
  9 10  1  0  0  0  0
 11 30  2  0  0  0  0
  3  4  1  0  0  0  0
  4  6  1  0  0  0  0
  4  5  1  0  0  0  0
  8 27  1  0  0  0  0
  8  9  1  0  0  0  0
  8 14  1  0  0  0  0
 14 31  1  0  0  0  0
  2 34  1  0  0  0  0
  3 35  1  0  0  0  0
  3 36  1  0  0  0  0
  4 37  1  0  0  0  0
  5 38  1  0  0  0  0
  5 39  1  0  0  0  0
  5 40  1  0  0  0  0
  6 41  1  0  0  0  0
  6 42  1  0  0  0  0
  6 43  1  0  0  0  0
  8 44  1  0  0  0  0
  9 45  1  0  0  0  0
  9 46  1  0  0  0  0
 10 47  1  0  0  0  0
 12 48  1  0  0  0  0
 12 49  1  0  0  0  0
 13 50  1  0  0  0  0
 13 51  1  0  0  0  0
 14 52  1  0  0  0  0
 14 53  1  0  0  0  0
 15 54  1  0  0  0  0
 15 55  1  0  0  0  0
 17 56  1  0  0  0  0
 17 57  1  0  0  0  0
 18 58  1  0  0  0  0
 19 59  1  0  0  0  0
 19 60  1  0  0  0  0
 20 61  1  0  0  0  0
 21 62  1  0  0  0  0
 21 63  1  0  0  0  0
 22 64  1  0  0  0  0
 22 65  1  0  0  0  0
 23 66  1  0  0  0  0
 24 67  1  0  0  0  0
 24 68  1  0  0  0  0
 25 69  1  0  0  0  0
 25 70  1  0  0  0  0
 26 71  1  0  0  0  0
 27 72  1  0  0  0  0
 28 73  1  0  0  0  0
 31 74  1  0  0  0  0
 53 75  2  0  0  0  0
 53 76  1  0  0  0  0
 53 77  2  0  0  0  0
 76 78  1  0  0  0  0
M  END
> <OPENEYE_ISO_SMILES>
CC(C)C[C@@H](C(=O)N[C@@H](C[C@@H]1CCNC1=O)[C@H](O)S(=O)(=O)O)NC(=O)OCC23CC4CC(C2)CC(C4)C3

> <OPENEYE_INCHI>
InChI=1S/C25H41N3O8S/c1-14(2)5-19(22(30)27-20(23(31)37(33,34)35)9-18-3-4-26-21(18)29)28-24(32)36-13-25-10-15-6-16(11-25)8-17(7-15)12-25/h14-20,23,31H,3-13H2,1-2H3,(H,26,29)(H,27,30)(H,28,32)(H,33,34,35)/t15-,16+,17-,18-,19-,20-,23+,25-/m0/s1

> <OPENEYE_INCHIKEY>
AFONNBAHWVWJGI-CLEZYGTASA-N

> <FORMULA>
C25H41N3O8S

$$$$
