Y7M
  -OEChem-02242320043D

 78 81  0     1  0  0  0  0  0999 V2000
   -2.2740    0.5590    0.7540 C   0  0  0  0  0  0  0  0  0  0  0  0
    0.1160    0.3110    1.1590 C   0  0  1  0  0  0  0  0  0  0  0  0
    0.2130   -0.2420    2.5820 C   0  0  0  0  0  0  0  0  0  0  0  0
   -0.8970    0.3660    3.4420 C   0  0  0  0  0  0  0  0  0  0  0  0
   -0.8790   -0.2790    4.8290 C   0  0  0  0  0  0  0  0  0  0  0  0
   -0.6700    1.8730    3.5770 C   0  0  0  0  0  0  0  0  0  0  0  0
    1.2800   -0.1920    0.3450 C   0  0  0  0  0  0  0  0  0  0  0  0
    3.6730   -0.3910   -0.0700 C   0  0  1  0  0  0  0  0  0  0  0  0
    4.8150    0.6250   -0.0090 C   0  0  0  0  0  0  0  0  0  0  0  0
    4.3460    1.9560   -0.6010 C   0  0  1  0  0  0  0  0  0  0  0  0
    5.4510    2.9870   -0.5280 C   0  0  0  0  0  0  0  0  0  0  0  0
    4.5490    3.1680   -2.6600 C   0  0  0  0  0  0  0  0  0  0  0  0
    4.0670    1.8060   -2.1150 C   0  0  0  0  0  0  0  0  0  0  0  0
    4.1510   -1.7300    0.4960 C   0  0  1  0  0  0  0  0  0  0  0  0
   -4.6090    0.9480    0.4540 C   0  0  0  0  0  0  0  0  0  0  0  0
   -5.8100    0.3360   -0.2710 C   0  0  0  0  0  0  0  0  0  0  0  0
   -7.0580    1.1740    0.0110 C   0  0  0  0  0  0  0  0  0  0  0  0
   -8.2580    0.5620   -0.7130 C   0  0  0  0  0  0  0  0  0  0  0  0
   -8.4810   -0.8670   -0.2140 C   0  0  0  0  0  0  0  0  0  0  0  0
   -7.2320   -1.7060   -0.4970 C   0  0  0  0  0  0  0  0  0  0  0  0
   -6.0320   -1.0930    0.2280 C   0  0  0  0  0  0  0  0  0  0  0  0
   -6.9620   -1.7270   -2.0030 C   0  0  0  0  0  0  0  0  0  0  0  0
   -6.7400   -0.2980   -2.5010 C   0  0  0  0  0  0  0  0  0  0  0  0
   -5.5400    0.3140   -1.7770 C   0  0  0  0  0  0  0  0  0  0  0  0
   -7.9880    0.5400   -2.2190 C   0  0  0  0  0  0  0  0  0  0  0  0
   -1.1370   -0.1350    0.5450 N   0  0  0  0  0  0  0  0  0  0  0  0
    2.5410    0.0980    0.7220 N   0  0  0  0  0  0  0  0  0  0  0  0
    5.5450    3.6460   -1.6950 N   0  0  0  0  0  0  0  0  0  0  0  0
   -2.2590    1.5550    1.4500 O   0  0  0  0  0  0  0  0  0  0  0  0
    6.1490    3.1880    0.4430 O   0  0  0  0  0  0  0  0  0  0  0  0
    3.0530   -2.6420    0.5530 O   0  0  0  0  0  0  0  0  0  0  0  0
    1.0820   -0.8570   -0.6500 O   0  0  0  0  0  0  0  0  0  0  0  0
   -3.4250    0.1520    0.1860 O   0  0  0  0  0  0  0  0  0  0  0  0
    0.1380    1.4000    1.1900 H   0  0  0  0  0  0  0  0  0  0  0  0
    0.1010   -1.3260    2.5590 H   0  0  0  0  0  0  0  0  0  0  0  0
    1.1830    0.0150    3.0070 H   0  0  0  0  0  0  0  0  0  0  0  0
   -1.8630    0.1850    2.9700 H   0  0  0  0  0  0  0  0  0  0  0  0
    0.0860   -0.0980    5.3010 H   0  0  0  0  0  0  0  0  0  0  0  0
   -1.6700    0.1550    5.4420 H   0  0  0  0  0  0  0  0  0  0  0  0
   -1.0410   -1.3520    4.7330 H   0  0  0  0  0  0  0  0  0  0  0  0
    0.2960    2.0540    4.0490 H   0  0  0  0  0  0  0  0  0  0  0  0
   -0.6830    2.3320    2.5880 H   0  0  0  0  0  0  0  0  0  0  0  0
   -1.4610    2.3060    4.1890 H   0  0  0  0  0  0  0  0  0  0  0  0
    3.3610   -0.5250   -1.1060 H   0  0  0  0  0  0  0  0  0  0  0  0
    5.1130    0.7750    1.0290 H   0  0  0  0  0  0  0  0  0  0  0  0
    5.6650    0.2520   -0.5810 H   0  0  0  0  0  0  0  0  0  0  0  0
    3.4560    2.3100   -0.0820 H   0  0  0  0  0  0  0  0  0  0  0  0
    5.0040    3.0420   -3.6420 H   0  0  0  0  0  0  0  0  0  0  0  0
    3.7140    3.8670   -2.7200 H   0  0  0  0  0  0  0  0  0  0  0  0
    4.6490    0.9880   -2.5390 H   0  0  0  0  0  0  0  0  0  0  0  0
    3.0030    1.6640   -2.3030 H   0  0  0  0  0  0  0  0  0  0  0  0
    4.5500   -1.5790    1.4990 H   0  0  0  0  0  0  0  0  0  0  0  0
    5.4480   -2.4110   -0.5740 S   0  0  0  0  0  0  0  0  0  0  0  0
   -4.4510    1.9660    0.0980 H   0  0  0  0  0  0  0  0  0  0  0  0
   -4.8020    0.9640    1.5260 H   0  0  0  0  0  0  0  0  0  0  0  0
   -7.2500    1.1900    1.0840 H   0  0  0  0  0  0  0  0  0  0  0  0
   -6.8990    2.1930   -0.3440 H   0  0  0  0  0  0  0  0  0  0  0  0
   -9.1470    1.1600   -0.5120 H   0  0  0  0  0  0  0  0  0  0  0  0
   -8.6730   -0.8510    0.8580 H   0  0  0  0  0  0  0  0  0  0  0  0
   -9.3360   -1.3030   -0.7310 H   0  0  0  0  0  0  0  0  0  0  0  0
   -7.3910   -2.7240   -0.1410 H   0  0  0  0  0  0  0  0  0  0  0  0
   -5.1430   -1.6910    0.0270 H   0  0  0  0  0  0  0  0  0  0  0  0
   -6.2240   -1.0780    1.3010 H   0  0  0  0  0  0  0  0  0  0  0  0
   -6.0730   -2.3250   -2.2040 H   0  0  0  0  0  0  0  0  0  0  0  0
   -7.8170   -2.1640   -2.5190 H   0  0  0  0  0  0  0  0  0  0  0  0
   -6.5480   -0.3140   -3.5740 H   0  0  0  0  0  0  0  0  0  0  0  0
   -5.3810    1.3320   -2.1320 H   0  0  0  0  0  0  0  0  0  0  0  0
   -4.6500   -0.2830   -1.9780 H   0  0  0  0  0  0  0  0  0  0  0  0
   -8.8430    0.1040   -2.7350 H   0  0  0  0  0  0  0  0  0  0  0  0
   -7.8300    1.5590   -2.5750 H   0  0  0  0  0  0  0  0  0  0  0  0
   -1.1500   -0.9300   -0.0100 H   0  0  0  0  0  0  0  0  0  0  0  0
    2.7000    0.6300    1.5170 H   0  0  0  0  0  0  0  0  0  0  0  0
    6.1900    4.3480   -1.8760 H   0  0  0  0  0  0  0  0  0  0  0  0
    2.3210   -2.3420    1.1090 H   0  0  0  0  0  0  0  0  0  0  0  0
    5.9450   -3.6310   -0.0410 O   0  0  0  0  0  0  0  0  0  0  0  0
    5.0710   -2.3080   -1.9410 O   0  0  0  0  0  0  0  0  0  0  0  0
    6.6090   -1.4370   -0.4310 O   0  0  0  0  0  0  0  0  0  0  0  0
    7.3870   -1.6740   -0.9530 H   0  0  0  0  0  0  0  0  0  0  0  0
 20 22  1  0  0  0  0
 22 23  1  0  0  0  0
 11 30  2  0  0  0  0
 20 21  1  0  0  0  0
 16 21  1  0  0  0  0
 19 20  1  0  0  0  0
 11 28  1  0  0  0  0
 10 11  1  0  0  0  0
 23 24  1  0  0  0  0
 23 25  1  0  0  0  0
 16 24  1  0  0  0  0
 12 28  1  0  0  0  0
 15 16  1  0  0  0  0
 16 17  1  0  0  0  0
 15 33  1  0  0  0  0
 18 19  1  0  0  0  0
  1 29  2  0  0  0  0
  9 10  1  0  0  0  0
 10 13  1  0  0  0  0
  1 33  1  0  0  0  0
  1 26  1  0  0  0  0
 18 25  1  0  0  0  0
 12 13  1  0  0  0  0
  8  9  1  0  0  0  0
 17 18  1  0  0  0  0
  4  5  1  0  0  0  0
  2 26  1  0  0  0  0
  8 27  1  0  0  0  0
  7 27  1  0  0  0  0
  2  7  1  0  0  0  0
  2  3  1  0  0  0  0
  8 14  1  0  0  0  0
  3  4  1  0  0  0  0
  4  6  1  0  0  0  0
  7 32  2  0  0  0  0
 14 31  1  0  0  0  0
  2 34  1  0  0  0  0
  3 35  1  0  0  0  0
  3 36  1  0  0  0  0
  4 37  1  0  0  0  0
  5 38  1  0  0  0  0
  5 39  1  0  0  0  0
  5 40  1  0  0  0  0
  6 41  1  0  0  0  0
  6 42  1  0  0  0  0
  6 43  1  0  0  0  0
  8 44  1  0  0  0  0
  9 45  1  0  0  0  0
  9 46  1  0  0  0  0
 10 47  1  0  0  0  0
 12 48  1  0  0  0  0
 12 49  1  0  0  0  0
 13 50  1  0  0  0  0
 13 51  1  0  0  0  0
 14 52  1  0  0  0  0
 14 53  1  0  0  0  0
 15 54  1  0  0  0  0
 15 55  1  0  0  0  0
 17 56  1  0  0  0  0
 17 57  1  0  0  0  0
 18 58  1  0  0  0  0
 19 59  1  0  0  0  0
 19 60  1  0  0  0  0
 20 61  1  0  0  0  0
 21 62  1  0  0  0  0
 21 63  1  0  0  0  0
 22 64  1  0  0  0  0
 22 65  1  0  0  0  0
 23 66  1  0  0  0  0
 24 67  1  0  0  0  0
 24 68  1  0  0  0  0
 25 69  1  0  0  0  0
 25 70  1  0  0  0  0
 26 71  1  0  0  0  0
 27 72  1  0  0  0  0
 28 73  1  0  0  0  0
 31 74  1  0  0  0  0
 53 75  2  0  0  0  0
 53 76  2  0  0  0  0
 53 77  1  0  0  0  0
 77 78  1  0  0  0  0
M  END
> <OPENEYE_ISO_SMILES>
CC(C)C[C@@H](C(=O)N[C@@H](C[C@@H]1CCNC1=O)[C@@H](O)S(=O)(=O)O)NC(=O)OCC23CC4CC(C2)CC(C4)C3

> <OPENEYE_INCHI>
InChI=1S/C25H41N3O8S/c1-14(2)5-19(22(30)27-20(23(31)37(33,34)35)9-18-3-4-26-21(18)29)28-24(32)36-13-25-10-15-6-16(11-25)8-17(7-15)12-25/h14-20,23,31H,3-13H2,1-2H3,(H,26,29)(H,27,30)(H,28,32)(H,33,34,35)/t15-,16+,17-,18-,19-,20-,23-,25-/m0/s1

> <OPENEYE_INCHIKEY>
AFONNBAHWVWJGI-WSGOIKEKSA-N

> <FORMULA>
C25H41N3O8S

$$$$
