@<TRIPOS>MOLECULE
/home/pku/3cl/gett_pdb/7MAW/7MAW_mol2/ligand/7MAW_YVA.pdb
 70 72 0 0 0
SMALL
GASTEIGER

@<TRIPOS>ATOM
      1  C10      -10.0030   -9.6820   38.4450 C.2   401  YVA401      0.2162
      2  C13      -11.2130  -14.2430   40.1300 C.3   401  YVA401     -0.0075
      3  C15      -12.6250  -16.3320   39.6990 C.2   401  YVA401      0.3074
      4  C20      -14.8630  -16.8350   39.9100 C.3   401  YVA401      0.0896
      5  C21      -15.1450  -17.7420   38.6930 C.3   401  YVA401     -0.0306
      6  C22      -12.1200   -9.1630   37.4030 C.3   401  YVA401      0.0123
      7  C24      -13.6090  -12.0050   45.6210 C.3   401  YVA401     -0.0389
      8  C26      -13.5740  -13.0970   46.6910 C.3   401  YVA401     -0.0499
      9  C28      -13.3750   -6.5900   43.4600 C.2   401  YVA401     -0.0497
     10  C01      -13.1420   -8.9210   42.8570 C.2   401  YVA401      0.2375
     11  C04      -12.8820  -11.3180   43.3960 C.3   401  YVA401      0.0999
     12  C05      -13.6010  -12.4330   44.1440 C.3   401  YVA401     -0.0231
     13  C07      -11.5180  -12.7260   40.0150 C.3   401  YVA401      0.0275
     14  C08      -10.4420  -11.9460   39.3070 C.3   401  YVA401     -0.0231
     15  C09      -11.0150  -10.5290   39.0690 C.3   401  YVA401      0.0386
     16  C14      -12.5980  -14.8900   40.1500 C.3   401  YVA401      0.0498
     17  C18      -12.8530  -11.6270   41.9190 C.2   401  YVA401      0.2336
     18  C23      -12.1990  -10.5420   38.0950 C.3   401  YVA401     -0.0262
     19  C25      -12.2880  -12.3570   46.3010 C.3   401  YVA401     -0.0499
     20  C27      -13.9690   -7.6360   42.9440 C.2   401  YVA401      0.0007
     21  C29      -15.4520   -2.5320   43.7630 C.ar  401  YVA401      0.0247
     22  C30      -14.3960   -2.7680   42.6830 C.ar  401  YVA401     -0.0458
     23  C31      -13.7130   -4.1300   42.5870 C.ar  401  YVA401     -0.0534
     24  C32      -14.0920   -5.2390   43.5690 C.ar  401  YVA401     -0.0248
     25  C33      -15.1580   -5.0190   44.6290 C.ar  401  YVA401     -0.0534
     26  C34      -15.8330   -3.6530   44.7230 C.ar  401  YVA401     -0.0458
     27  C35      -16.1620   -1.1690   43.8550 C.1   401  YVA401     -0.0697
     28  C36      -16.6920   -0.1060   43.9210 C.1   401  YVA401     -0.1139
     29  N02      -13.6630  -10.1100   43.4970 N.am  401  YVA401     -0.3005
     30  N06      -11.6990  -12.3530   41.4310 N.am  401  YVA401     -0.3106
     31  N11      -10.7100   -8.8330   37.4190 N.am  401  YVA401     -0.3151
     32  O03      -12.0860   -8.9450   42.2860 O.2   401  YVA401     -0.2708
     33  O12       -8.8360   -9.6640   38.6820 O.2   401  YVA401     -0.2755
     34  O16      -13.5600  -17.1400   40.3440 O.3   401  YVA401     -0.4649
     35  O17      -11.9020  -16.7480   38.8420 O.2   401  YVA401     -0.2508
     36  O19      -13.6980  -11.3070   41.1680 O.2   401  YVA401     -0.2738
     37 H131      -10.6510  -14.5710   39.4370 H     401  YVA401      0.0327
     38 H201      -15.4820  -17.0090   40.5940 H     401  YVA401      0.0694
     39 H202      -14.9180  -15.9310   39.6600 H     401  YVA401      0.0694
     40 H213      -14.9320  -18.6310   38.9100 H     401  YVA401      0.0262
     41 H212      -14.6200  -17.4630   37.9660 H     401  YVA401      0.0262
     42 H211      -16.0530  -17.6850   38.4640 H     401  YVA401      0.0262
     43 H221      -12.4340   -9.2210   36.5200 H     401  YVA401      0.0462
     44 H222      -12.6120   -8.5250   37.8860 H     401  YVA401      0.0462
     45 H241      -14.0860  -11.2460   45.8990 H     401  YVA401      0.0301
     46 H261      -13.6470  -13.9780   46.3750 H     401  YVA401      0.0268
     47 H262      -13.9410  -12.8620   47.5230 H     401  YVA401      0.0268
     48 H281      -12.5010   -6.6670   43.7670 H     401  YVA401      0.0625
     49 H041      -12.0190  -11.2330   43.7580 H     401  YVA401      0.0595
     50 H051      -13.1420  -13.2460   44.0410 H     401  YVA401      0.0290
     51 H052      -14.4790  -12.5280   43.8250 H     401  YVA401      0.0290
     52 H071      -12.2640  -12.5300   39.4800 H     401  YVA401      0.0501
     53 H082       -9.6710  -11.8990   39.8400 H     401  YVA401      0.0290
     54 H081      -10.2320  -12.3530   38.4870 H     401  YVA401      0.0290
     55 H091      -11.2990  -10.1680   39.8880 H     401  YVA401      0.0395
     56 H142      -12.9270  -14.8520   41.0290 H     401  YVA401      0.0381
     57 H141      -13.1610  -14.3950   39.5840 H     401  YVA401      0.0381
     58 H231      -12.1030  -11.2340   37.4670 H     401  YVA401      0.0288
     59 H232      -13.0090  -10.6320   38.5610 H     401  YVA401      0.0288
     60 H252      -11.9750  -11.7310   46.9270 H     401  YVA401      0.0268
     61 H251      -11.6810  -12.8470   45.7790 H     401  YVA401      0.0268
     62 H271      -14.8490   -7.6010   42.6450 H     401  YVA401      0.0669
     63 H301      -14.1730   -2.0890   42.0900 H     401  YVA401      0.0630
     64 H311      -13.0690   -4.2840   41.9350 H     401  YVA401      0.0624
     65 H331      -15.3950   -5.7040   45.2100 H     401  YVA401      0.0624
     66 H341      -16.4810   -3.5030   45.3720 H     401  YVA401      0.0630
     67 H361      -17.0840    0.7190   43.9750 H     401  YVA401      0.1232
     68 H021      -14.4170  -10.0960   43.9260 H     401  YVA401      0.1498
     69 H061      -11.0840  -12.5810   42.0000 H     401  YVA401      0.1490
     70 H111      -10.3300   -8.2370   36.9140 H     401  YVA401      0.1487
@<TRIPOS>BOND
     1    43     6    1
     2    70    31    1
     3     6    31    1
     4     6    44    1
     5     6    18    1
     6    31     1   am
     7    58    18    1
     8    41     5    1
     9    18    59    1
    10    18    15    1
    11     1    33    2
    12     1    15    1
    13    42     5    1
    14    54    14    1
    15     5    40    1
    16     5     4    1
    17    35     3    2
    18    15    14    1
    19    15    55    1
    20    14    53    1
    21    14    13    1
    22    37     2    1
    23    52    13    1
    24    57    16    1
    25    39     4    1
    26     3    16    1
    27     3    34    1
    28     4    34    1
    29     4    38    1
    30    13     2    1
    31    13    30    1
    32     2    16    1
    33    16    56    1
    34    36    17    2
    35    30    17   am
    36    30    69    1
    37    17    11    1
    38    64    23    1
    39    63    22    1
    40    32    10    2
    41    23    22   ar
    42    23    24   ar
    43    62    20    1
    44    22    21   ar
    45    10    20    1
    46    10    29   am
    47    20     9    2
    48    11    29    1
    49    11    49    1
    50    11    12    1
    51     9    24    1
    52     9    48    1
    53    29    68    1
    54    24    25   ar
    55    21    27    1
    56    21    26   ar
    57    51    12    1
    58    27    28    3
    59    28    67    1
    60    50    12    1
    61    12     7    1
    62    25    26   ar
    63    25    65    1
    64    26    66    1
    65     7    45    1
    66     7    19    1
    67     7     8    1
    68    61    19    1
    69    19     8    1
    70    19    60    1
    71    46     8    1
    72     8    47    1
