@<TRIPOS>MOLECULE
/home/pku/3cl/gett_pdb/7VTC/7VTC_mol2/ligand/7VTC_4WI.pdb
 35 37 0 0 0
SMALL
GASTEIGER

@<TRIPOS>ATOM
      1  C8       -12.6540   10.8690   -2.7850 C.2   401  4WI401      0.2410
      2  C3       -13.6120   14.1370    0.0820 C.3   401  4WI401      0.1309
      3  C1       -12.2490   11.5200    2.1550 C.2   401  4WI401      0.2594
      4  C13      -13.1130    8.5530    2.0630 C.2   401  4WI401      0.2458
      5  C21      -14.4650    5.7110    3.1450 C.2   401  4WI401      0.3371
      6  C6       -10.7090   10.9890   -1.6060 C.3   401  4WI401      0.0326
      7  C7       -10.6600    9.7830   -2.5130 C.3   401  4WI401      0.1156
      8  C10      -12.1620    9.1090    4.3890 C.3   401  4WI401      0.0939
      9  C5       -12.2010   11.1530   -1.4760 C.3   401  4WI401      0.0817
     10  C9       -13.1410   10.8000    3.0060 C.3   401  4WI401      0.1535
     11  C11      -12.5670   10.2900    5.3290 C.3   401  4WI401      0.0220
     12  C12      -13.1630   11.3820    4.4480 C.3   401  4WI401      0.0289
     13  C18      -14.0510   10.6850    5.4860 C.3   401  4WI401      0.0037
     14  C19      -14.4660   11.4910    6.7190 C.3   401  4WI401      0.0001
     15  C20      -15.1440    9.6830    5.0920 C.3   401  4WI401      0.0001
     16  C16      -11.1670    5.2590    1.6110 C.3   401  4WI401      0.0022
     17  C17      -10.3530    7.6140    1.6610 C.3   401  4WI401      0.0022
     18  C23      -11.8550    6.8870   -0.1870 C.3   401  4WI401      0.0022
     19  C4       -12.4390   12.6180   -1.2440 C.3   401  4WI401      0.0324
     20  C2       -12.4590   13.1340    0.1980 C.3   401  4WI401      0.1148
     21  C14      -12.7110    7.0820    2.2210 C.3   401  4WI401      0.1714
     22  C22      -15.7400    4.8660    2.9550 C.3   401  4WI401      0.4711
     23  C15      -11.5320    6.7120    1.3040 C.3   401  4WI401      0.0269
     24  N5       -13.9260   14.8000    1.2020 N.3   401  4WI401     -0.1295
     25  N2       -11.7900   10.0890   -3.4450 N.am  401  4WI401     -0.2054
     26  N3       -12.8030    9.3580    3.0880 N.am  401  4WI401     -0.2716
     27  N1       -12.9430   12.2100    1.2320 N.am  401  4WI401     -0.2043
     28  N4       -13.8910    6.2220    2.0370 N.am  401  4WI401     -0.1908
     29  O1       -13.6960   11.3000   -3.2870 O.2   401  4WI401     -0.2734
     30  O2       -11.0110   11.4540    2.2480 O.2   401  4WI401     -0.2716
     31  O3       -13.6990    8.9420    1.0540 O.2   401  4WI401     -0.2730
     32  O4       -14.0040    5.8950    4.2790 O.2   401  4WI401     -0.2642
     33  F1       -16.4720    5.3120    1.9370 F     401  4WI401     -0.1620
     34  F2       -15.4080    3.5370    2.6880 F     401  4WI401     -0.1620
     35  F3       -16.5230    4.9920    4.1010 F     401  4WI401     -0.1620
@<TRIPOS>BOND
     1    25     1   am
     2    25     7    1
     3    29     1    2
     4     1     9    1
     5     7     6    1
     6     6     9    1
     7     9    19    1
     8    19    20    1
     9    18    23    1
    10     2    20    1
    11     2    24    1
    12    20    27    1
    13    31     4    2
    14    27     3   am
    15    23    16    1
    16    23    17    1
    17    23    21    1
    18    33    22    1
    19    28    21    1
    20    28     5   am
    21     4    21    1
    22     4    26   am
    23     3    30    2
    24     3    10    1
    25    34    22    1
    26    22     5    1
    27    22    35    1
    28    10    26    1
    29    10    12    1
    30    26     8    1
    31     5    32    2
    32     8    11    1
    33    12    11    1
    34    12    13    1
    35    15    13    1
    36    11    13    1
    37    13    14    1
