FV5
  -OEChem-02242320023D

 79 81  0     1  0  0  0  0  0999 V2000
    6.0130   -1.2600    0.8180 C   0  0  0  0  0  0  0  0  0  0  0  0
    4.2530   -2.7070   -0.2110 C   0  0  0  0  0  0  0  0  0  0  0  0
    6.0710   -3.8450   -1.1040 C   0  0  0  0  0  0  0  0  0  0  0  0
    5.7470    1.1410    1.4590 C   0  0  2  0  0  0  0  0  0  0  0  0
   -3.2190   -0.4240    0.6700 C   0  0  0  0  0  0  0  0  0  0  0  0
   -4.1830   -0.9170    1.7640 C   0  0  0  0  0  0  0  0  0  0  0  0
   -6.3860    0.3880    1.7530 C   0  0  0  0  0  0  0  0  0  0  0  0
   -7.3390    1.1350    0.8130 C   0  0  0  0  0  0  0  0  0  0  0  0
   -9.9190    1.2070   -1.6710 C   0  0  0  0  0  0  0  0  0  0  0  0
   -0.8920    0.0340    0.4070 C   0  0  0  0  0  0  0  0  0  0  0  0
    1.4950    0.3360    0.0220 C   0  0  1  0  0  0  0  0  0  0  0  0
    1.6090    1.4680   -1.0010 C   0  0  0  0  0  0  0  0  0  0  0  0
    2.7000    1.1290   -2.0180 C   0  0  0  0  0  0  0  0  0  0  0  0
    2.2670   -0.0850   -2.8440 C   0  0  0  0  0  0  0  0  0  0  0  0
    2.9210    2.3250   -2.9470 C   0  0  0  0  0  0  0  0  0  0  0  0
    2.7070    0.3450    0.9180 C   0  0  0  0  0  0  0  0  0  0  0  0
    5.0380   -0.2110    1.3590 C   0  0  1  0  0  0  0  0  0  0  0  0
    5.3430   -2.6350    0.8360 C   0  0  1  0  0  0  0  0  0  0  0  0
    6.3480   -3.7310    0.4120 C   0  0  0  0  0  0  0  0  0  0  0  0
   -5.3160   -0.3170    0.9220 C   0  0  0  0  0  0  0  0  0  0  0  0
   -6.8550   -0.5340   -1.0270 C   0  0  0  0  0  0  0  0  0  0  0  0
   -5.8990   -1.2920   -0.0990 C   0  0  0  0  0  0  0  0  0  0  0  0
   -4.2750    0.6410    0.3270 C   0  0  0  0  0  0  0  0  0  0  0  0
    0.2890    0.5270    0.8310 N   0  0  0  0  0  0  0  0  0  0  0  0
    3.8930   -0.0960    0.4530 N   0  0  0  0  0  0  0  0  0  0  0  0
    4.6840   -3.3980   -1.2800 N   0  0  0  0  0  0  0  0  0  0  0  0
   -7.8290    0.1990   -0.2060 N   0  0  0  0  0  0  0  0  0  0  0  0
   -0.9730   -0.4940   -0.6850 O   0  0  0  0  0  0  0  0  0  0  0  0
    3.1500   -2.2160   -0.0990 O   0  0  0  0  0  0  0  0  0  0  0  0
    4.8740    2.0920    2.0710 O   0  0  0  0  0  0  0  0  0  0  0  0
    2.6160    0.7500    2.0570 O   0  0  0  0  0  0  0  0  0  0  0  0
   -1.9810    0.1280    1.1920 O   0  0  0  0  0  0  0  0  0  0  0  0
  -10.0270    0.2910    0.8320 O   0  0  0  0  0  0  0  0  0  0  0  0
   -9.5540   -1.3400   -0.9660 O   0  0  0  0  0  0  0  0  0  0  0  0
   -9.4540   -0.0290   -0.4280 S   0  0  0  0  0  0  0  0  0  0  0  0
    6.2910   -1.0040   -0.2040 H   0  0  0  0  0  0  0  0  0  0  0  0
    6.9050   -1.2820    1.4430 H   0  0  0  0  0  0  0  0  0  0  0  0
    6.7480   -3.2030   -1.6660 H   0  0  0  0  0  0  0  0  0  0  0  0
    6.1770   -4.8800   -1.4260 H   0  0  0  0  0  0  0  0  0  0  0  0
    6.6490    1.0350    2.0610 H   0  0  0  0  0  0  0  0  0  0  0  0
   -3.0560   -1.1500   -0.1260 H   0  0  0  0  0  0  0  0  0  0  0  0
   -4.2290   -2.0030    1.8490 H   0  0  0  0  0  0  0  0  0  0  0  0
   -4.0420   -0.4230    2.7250 H   0  0  0  0  0  0  0  0  0  0  0  0
   -5.9120    1.0980    2.4310 H   0  0  0  0  0  0  0  0  0  0  0  0
   -6.9440   -0.3500    2.3290 H   0  0  0  0  0  0  0  0  0  0  0  0
   -8.1820    1.5270    1.3840 H   0  0  0  0  0  0  0  0  0  0  0  0
   -6.8080    1.9560    0.3310 H   0  0  0  0  0  0  0  0  0  0  0  0
   -9.6950    2.2050   -1.2930 H   0  0  0  0  0  0  0  0  0  0  0  0
   -9.3550    1.0310   -2.5870 H   0  0  0  0  0  0  0  0  0  0  0  0
  -10.9860    1.1290   -1.8800 H   0  0  0  0  0  0  0  0  0  0  0  0
    1.4360   -0.6200   -0.4990 H   0  0  0  0  0  0  0  0  0  0  0  0
    0.6560    1.5890   -1.5160 H   0  0  0  0  0  0  0  0  0  0  0  0
    1.8650    2.3960   -0.4890 H   0  0  0  0  0  0  0  0  0  0  0  0
    3.6270    0.9000   -1.4940 H   0  0  0  0  0  0  0  0  0  0  0  0
    3.0560   -0.3420   -3.5520 H   0  0  0  0  0  0  0  0  0  0  0  0
    2.0860   -0.9300   -2.1800 H   0  0  0  0  0  0  0  0  0  0  0  0
    1.3540    0.1530   -3.3880 H   0  0  0  0  0  0  0  0  0  0  0  0
    3.2290    3.1890   -2.3590 H   0  0  0  0  0  0  0  0  0  0  0  0
    3.6980    2.0830   -3.6720 H   0  0  0  0  0  0  0  0  0  0  0  0
    1.9930    2.5540   -3.4710 H   0  0  0  0  0  0  0  0  0  0  0  0
    4.6910   -0.5130    2.3470 H   0  0  0  0  0  0  0  0  0  0  0  0
    4.9370   -2.8490    1.8240 H   0  0  0  0  0  0  0  0  0  0  0  0
    6.1350   -4.6730    0.9190 H   0  0  0  0  0  0  0  0  0  0  0  0
    7.3740   -3.4130    0.5980 H   0  0  0  0  0  0  0  0  0  0  0  0
   -6.2900    0.1690   -1.6390 H   0  0  0  0  0  0  0  0  0  0  0  0
   -7.3770   -1.2420   -1.6710 H   0  0  0  0  0  0  0  0  0  0  0  0
   -5.0920   -1.7300   -0.6860 H   0  0  0  0  0  0  0  0  0  0  0  0
   -6.4430   -2.0810    0.4200 H   0  0  0  0  0  0  0  0  0  0  0  0
   -4.1610    1.5670    0.8910 H   0  0  0  0  0  0  0  0  0  0  0  0
   -4.3950    0.8070   -0.7430 H   0  0  0  0  0  0  0  0  0  0  0  0
    0.3400    1.0090    1.6710 H   0  0  0  0  0  0  0  0  0  0  0  0
    3.9870   -0.3380   -0.4820 H   0  0  0  0  0  0  0  0  0  0  0  0
    4.1480   -3.5770   -2.0690 H   0  0  0  0  0  0  0  0  0  0  0  0
    4.0490    2.2380    1.5880 H   0  0  0  0  0  0  0  0  0  0  0  0
    6.1940    1.7130   -0.2040 S   0  0  0  0  0  0  0  0  0  0  0  0
    7.2080    0.8880   -0.7600 O   0  0  0  0  0  0  0  0  0  0  0  0
    5.0290    2.0440   -0.9470 O   0  0  0  0  0  0  0  0  0  0  0  0
    6.8840    3.0500    0.0280 O   0  0  0  0  0  0  0  0  0  0  0  0
    7.1840    3.4840   -0.7830 H   0  0  0  0  0  0  0  0  0  0  0  0
  9 35  1  0  0  0  0
 13 14  1  0  0  0  0
  7  8  1  0  0  0  0
  8 27  1  0  0  0  0
 33 35  2  0  0  0  0
 27 35  1  0  0  0  0
 34 35  2  0  0  0  0
  7 20  1  0  0  0  0
 13 15  1  0  0  0  0
 12 13  1  0  0  0  0
 21 27  1  0  0  0  0
 20 23  1  0  0  0  0
 20 22  1  0  0  0  0
  6 20  1  0  0  0  0
 11 12  1  0  0  0  0
 21 22  1  0  0  0  0
  5 23  1  0  0  0  0
  5  6  1  0  0  0  0
 11 24  1  0  0  0  0
 10 24  1  0  0  0  0
  5 32  1  0  0  0  0
 10 32  1  0  0  0  0
 11 16  1  0  0  0  0
 10 28  2  0  0  0  0
 16 31  2  0  0  0  0
 16 25  1  0  0  0  0
 17 25  1  0  0  0  0
  4 30  1  0  0  0  0
  4 17  1  0  0  0  0
  1 17  1  0  0  0  0
  1 18  1  0  0  0  0
 18 19  1  0  0  0  0
  2 18  1  0  0  0  0
  3 19  1  0  0  0  0
  2 29  2  0  0  0  0
  2 26  1  0  0  0  0
  3 26  1  0  0  0  0
  1 36  1  0  0  0  0
  1 37  1  0  0  0  0
  3 38  1  0  0  0  0
  3 39  1  0  0  0  0
  4 40  1  0  0  0  0
  5 41  1  0  0  0  0
  6 42  1  0  0  0  0
  6 43  1  0  0  0  0
  7 44  1  0  0  0  0
  7 45  1  0  0  0  0
  8 46  1  0  0  0  0
  8 47  1  0  0  0  0
  9 48  1  0  0  0  0
  9 49  1  0  0  0  0
  9 50  1  0  0  0  0
 11 51  1  0  0  0  0
 12 52  1  0  0  0  0
 12 53  1  0  0  0  0
 13 54  1  0  0  0  0
 14 55  1  0  0  0  0
 14 56  1  0  0  0  0
 14 57  1  0  0  0  0
 15 58  1  0  0  0  0
 15 59  1  0  0  0  0
 15 60  1  0  0  0  0
 17 61  1  0  0  0  0
 18 62  1  0  0  0  0
 19 63  1  0  0  0  0
 19 64  1  0  0  0  0
 21 65  1  0  0  0  0
 21 66  1  0  0  0  0
 22 67  1  0  0  0  0
 22 68  1  0  0  0  0
 23 69  1  0  0  0  0
 23 70  1  0  0  0  0
 24 71  1  0  0  0  0
 25 72  1  0  0  0  0
 26 73  1  0  0  0  0
 30 74  1  0  0  0  0
  4 75  1  0  0  0  0
 75 76  2  0  0  0  0
 75 77  2  0  0  0  0
 75 78  1  0  0  0  0
 78 79  1  0  0  0  0
M  END
> <OPENEYE_ISO_SMILES>
CC(C)C[C@@H](C(=O)N[C@@H](C[C@@H]1CCNC1=O)[C@H](O)S(=O)(=O)O)NC(=O)OC2CC3(C2)CCN(CC3)S(=O)(=O)C

> <OPENEYE_INCHI>
InChI=1S/C23H40N4O10S2/c1-14(2)10-17(20(29)25-18(21(30)39(34,35)36)11-15-4-7-24-19(15)28)26-22(31)37-16-12-23(13-16)5-8-27(9-6-23)38(3,32)33/h14-18,21,30H,4-13H2,1-3H3,(H,24,28)(H,25,29)(H,26,31)(H,34,35,36)/t15-,17-,18-,21+/m0/s1

> <OPENEYE_INCHIKEY>
DXHKTWBJEAVWSD-QUJKESNLSA-N

> <FORMULA>
C23H40N4O10S2

$$$$
