FVE
  -OEChem-02242320023D

 79 81  0     1  0  0  0  0  0999 V2000
   -3.9110   -1.5520    1.8880 C   0  0  1  0  0  0  0  0  0  0  0  0
   -4.6800   -2.1900    3.0230 C   0  0  0  0  0  0  0  0  0  0  0  0
   -2.9840   -3.6820    2.4820 C   0  0  0  0  0  0  0  0  0  0  0  0
   -3.0920   -2.7160    1.2820 C   0  0  0  0  0  0  0  0  0  0  0  0
   -5.0340    0.2140   -1.3450 C   0  0  1  0  0  0  0  0  0  0  0  0
    2.5700    1.9280    0.1750 O   0  0  0  0  0  0  0  0  0  0  0  0
    6.6920   -1.0390   -0.1350 N   0  0  0  0  0  0  0  0  0  0  0  0
    7.6200   -3.6220   -0.1090 C   0  0  0  0  0  0  0  0  0  0  0  0
    7.1840   -0.2430    0.9970 C   0  0  0  0  0  0  0  0  0  0  0  0
    6.8610    1.2340    0.7390 C   0  0  0  0  0  0  0  0  0  0  0  0
    4.8980    2.8300    0.3480 C   0  0  0  0  0  0  0  0  0  0  0  0
   -4.8730   -0.9750    0.8470 C   0  0  0  0  0  0  0  0  0  0  0  0
    3.6250    2.3620    1.0730 C   0  0  0  0  0  0  0  0  0  0  0  0
    4.4650    1.2060    1.6410 C   0  0  0  0  0  0  0  0  0  0  0  0
    4.9420    0.5330   -0.7830 C   0  0  0  0  0  0  0  0  0  0  0  0
    5.2770   -0.9380   -0.5150 C   0  0  0  0  0  0  0  0  0  0  0  0
    1.3020    2.0960    0.5940 C   0  0  0  0  0  0  0  0  0  0  0  0
   -1.1030    1.9960    0.2150 C   0  0  1  0  0  0  0  0  0  0  0  0
   -1.5130    3.3790   -0.2960 C   0  0  0  0  0  0  0  0  0  0  0  0
   -2.9530    3.6730    0.1280 C   0  0  0  0  0  0  0  0  0  0  0  0
   -3.0280    3.7600    1.6540 C   0  0  0  0  0  0  0  0  0  0  0  0
   -3.4030    5.0030   -0.4810 C   0  0  0  0  0  0  0  0  0  0  0  0
   -2.0220    0.9530   -0.3660 C   0  0  0  0  0  0  0  0  0  0  0  0
   -4.0720   -0.3630   -0.3040 C   0  0  2  0  0  0  0  0  0  0  0  0
    5.3750    1.3730    0.4170 C   0  0  0  0  0  0  0  0  0  0  0  0
    0.2760    1.7140   -0.1920 N   0  0  0  0  0  0  0  0  0  0  0  0
   -3.2140    0.7060    0.2130 N   0  0  0  0  0  0  0  0  0  0  0  0
   -4.1430   -3.3830    3.3320 N   0  0  0  0  0  0  0  0  0  0  0  0
    1.0820    2.5920    1.6820 O   0  0  0  0  0  0  0  0  0  0  0  0
   -5.6400   -1.6970    3.5750 O   0  0  0  0  0  0  0  0  0  0  0  0
   -4.2900    0.9060   -2.3490 O   0  0  0  0  0  0  0  0  0  0  0  0
   -1.6890    0.3350   -1.3560 O   0  0  0  0  0  0  0  0  0  0  0  0
    7.1350   -2.1280   -2.2660 O   0  0  0  0  0  0  0  0  0  0  0  0
    9.0000   -1.4430   -0.7920 O   0  0  0  0  0  0  0  0  0  0  0  0
    7.7190   -2.0310   -0.9740 S   0  0  0  0  0  0  0  0  0  0  0  0
   -3.2470   -0.7750    2.2660 H   0  0  0  0  0  0  0  0  0  0  0  0
   -3.0240   -4.7160    2.1390 H   0  0  0  0  0  0  0  0  0  0  0  0
   -2.0590   -3.5030    3.0300 H   0  0  0  0  0  0  0  0  0  0  0  0
   -3.6280   -3.1800    0.4540 H   0  0  0  0  0  0  0  0  0  0  0  0
   -2.1060   -2.3760    0.9650 H   0  0  0  0  0  0  0  0  0  0  0  0
   -5.7210    0.9070   -0.8590 H   0  0  0  0  0  0  0  0  0  0  0  0
    8.2720   -4.3440   -0.6000 H   0  0  0  0  0  0  0  0  0  0  0  0
    7.9340   -3.4930    0.9260 H   0  0  0  0  0  0  0  0  0  0  0  0
    6.5920   -3.9860   -0.1340 H   0  0  0  0  0  0  0  0  0  0  0  0
    6.6930   -0.5690    1.9140 H   0  0  0  0  0  0  0  0  0  0  0  0
    8.2620   -0.3700    1.0920 H   0  0  0  0  0  0  0  0  0  0  0  0
    7.0990    1.8190    1.6270 H   0  0  0  0  0  0  0  0  0  0  0  0
    7.4520    1.5940   -0.1040 H   0  0  0  0  0  0  0  0  0  0  0  0
    4.7180    3.1830   -0.6680 H   0  0  0  0  0  0  0  0  0  0  0  0
    5.5070    3.5180    0.9340 H   0  0  0  0  0  0  0  0  0  0  0  0
   -5.5110   -1.7710    0.4620 H   0  0  0  0  0  0  0  0  0  0  0  0
   -5.4900   -0.2060    1.3100 H   0  0  0  0  0  0  0  0  0  0  0  0
    3.2730    3.0620    1.8320 H   0  0  0  0  0  0  0  0  0  0  0  0
    4.9550    1.4440    2.5850 H   0  0  0  0  0  0  0  0  0  0  0  0
    3.9360    0.2530    1.6680 H   0  0  0  0  0  0  0  0  0  0  0  0
    5.4710    0.8710   -1.6740 H   0  0  0  0  0  0  0  0  0  0  0  0
    3.8680    0.6410   -0.9350 H   0  0  0  0  0  0  0  0  0  0  0  0
    5.0980   -1.5240   -1.4160 H   0  0  0  0  0  0  0  0  0  0  0  0
    4.6530   -1.3130    0.2970 H   0  0  0  0  0  0  0  0  0  0  0  0
   -1.1730    1.9760    1.3030 H   0  0  0  0  0  0  0  0  0  0  0  0
   -0.8490    4.1330    0.1250 H   0  0  0  0  0  0  0  0  0  0  0  0
   -1.4430    3.3990   -1.3840 H   0  0  0  0  0  0  0  0  0  0  0  0
   -3.6060    2.8740   -0.2220 H   0  0  0  0  0  0  0  0  0  0  0  0
   -2.4290    4.6020    2.0000 H   0  0  0  0  0  0  0  0  0  0  0  0
   -4.0640    3.9010    1.9600 H   0  0  0  0  0  0  0  0  0  0  0  0
   -2.6430    2.8380    2.0900 H   0  0  0  0  0  0  0  0  0  0  0  0
   -3.3500    4.9410   -1.5680 H   0  0  0  0  0  0  0  0  0  0  0  0
   -4.4290    5.2120   -0.1780 H   0  0  0  0  0  0  0  0  0  0  0  0
   -2.7500    5.8020   -0.1300 H   0  0  0  0  0  0  0  0  0  0  0  0
   -3.4540   -1.1330   -0.7670 H   0  0  0  0  0  0  0  0  0  0  0  0
    0.4500    1.2520   -1.0270 H   0  0  0  0  0  0  0  0  0  0  0  0
   -3.5030    1.2360    0.9720 H   0  0  0  0  0  0  0  0  0  0  0  0
   -4.4780   -3.9710    4.0260 H   0  0  0  0  0  0  0  0  0  0  0  0
   -3.7610    1.6410   -2.0110 H   0  0  0  0  0  0  0  0  0  0  0  0
   -5.9750   -1.1340   -2.1110 S   0  0  0  0  0  0  0  0  0  0  0  0
   -5.1220   -2.2300   -2.4130 O   0  0  0  0  0  0  0  0  0  0  0  0
   -6.8710   -1.6540   -0.9950 O   0  0  0  0  0  0  0  0  0  0  0  0
   -6.8820   -0.6230   -3.0780 O   0  0  0  0  0  0  0  0  0  0  0  0
   -7.4420   -2.3880   -1.2590 H   0  0  0  0  0  0  0  0  0  0  0  0
  8 35  1  0  0  0  0
 20 21  1  0  0  0  0
 15 16  1  0  0  0  0
  7 16  1  0  0  0  0
 33 35  2  0  0  0  0
  7 35  1  0  0  0  0
 34 35  2  0  0  0  0
 15 25  1  0  0  0  0
 20 22  1  0  0  0  0
 19 20  1  0  0  0  0
  7  9  1  0  0  0  0
 11 25  1  0  0  0  0
 10 25  1  0  0  0  0
 14 25  1  0  0  0  0
 18 19  1  0  0  0  0
  9 10  1  0  0  0  0
 11 13  1  0  0  0  0
 13 14  1  0  0  0  0
 18 26  1  0  0  0  0
 17 26  1  0  0  0  0
  6 13  1  0  0  0  0
  6 17  1  0  0  0  0
 18 23  1  0  0  0  0
 17 29  2  0  0  0  0
 23 32  2  0  0  0  0
 23 27  1  0  0  0  0
 24 27  1  0  0  0  0
  5 24  1  0  0  0  0
 12 24  1  0  0  0  0
  5 31  1  0  0  0  0
  1 12  1  0  0  0  0
  1  4  1  0  0  0  0
  1  2  1  0  0  0  0
  3  4  1  0  0  0  0
  2 30  2  0  0  0  0
  2 28  1  0  0  0  0
  3 28  1  0  0  0  0
  1 36  1  0  0  0  0
  3 37  1  0  0  0  0
  3 38  1  0  0  0  0
  4 39  1  0  0  0  0
  4 40  1  0  0  0  0
  5 41  1  0  0  0  0
  8 42  1  0  0  0  0
  8 43  1  0  0  0  0
  8 44  1  0  0  0  0
  9 45  1  0  0  0  0
  9 46  1  0  0  0  0
 10 47  1  0  0  0  0
 10 48  1  0  0  0  0
 11 49  1  0  0  0  0
 11 50  1  0  0  0  0
 12 51  1  0  0  0  0
 12 52  1  0  0  0  0
 13 53  1  0  0  0  0
 14 54  1  0  0  0  0
 14 55  1  0  0  0  0
 15 56  1  0  0  0  0
 15 57  1  0  0  0  0
 16 58  1  0  0  0  0
 16 59  1  0  0  0  0
 18 60  1  0  0  0  0
 19 61  1  0  0  0  0
 19 62  1  0  0  0  0
 20 63  1  0  0  0  0
 21 64  1  0  0  0  0
 21 65  1  0  0  0  0
 21 66  1  0  0  0  0
 22 67  1  0  0  0  0
 22 68  1  0  0  0  0
 22 69  1  0  0  0  0
 24 70  1  0  0  0  0
 26 71  1  0  0  0  0
 27 72  1  0  0  0  0
 28 73  1  0  0  0  0
 31 74  1  0  0  0  0
  5 75  1  0  0  0  0
 75 76  2  0  0  0  0
 75 77  1  0  0  0  0
 75 78  2  0  0  0  0
 77 79  1  0  0  0  0
M  END
> <OPENEYE_ISO_SMILES>
CC(C)C[C@@H](C(=O)N[C@@H](C[C@@H]1CCNC1=O)[C@@H](O)S(=O)(=O)O)NC(=O)OC2CC3(C2)CCN(CC3)S(=O)(=O)C

> <OPENEYE_INCHI>
InChI=1S/C23H40N4O10S2/c1-14(2)10-17(20(29)25-18(21(30)39(34,35)36)11-15-4-7-24-19(15)28)26-22(31)37-16-12-23(13-16)5-8-27(9-6-23)38(3,32)33/h14-18,21,30H,4-13H2,1-3H3,(H,24,28)(H,25,29)(H,26,31)(H,34,35,36)/t15-,17-,18-,21-/m0/s1

> <OPENEYE_INCHIKEY>
DXHKTWBJEAVWSD-DBSRCYSRSA-N

> <FORMULA>
C23H40N4O10S2

$$$$
