90U
  -OEChem-02242320013D

 66 69  0     1  0  0  0  0  0999 V2000
   -1.2000    0.8850   -0.3320 N   0  0  0  0  0  0  0  0  0  0  0  0
    3.1020    1.9060    2.8990 N   0  0  0  0  0  0  0  0  0  0  0  0
   -0.8540    3.1840    0.2400 C   0  0  1  0  0  0  0  0  0  0  0  0
   -1.0340    3.5270   -1.2430 C   0  0  0  0  0  0  0  0  0  0  0  0
   -2.0940    2.7470   -2.0240 C   0  0  0  0  0  0  0  0  0  0  0  0
   -0.8550    4.9890   -1.6550 C   0  0  0  0  0  0  0  0  0  0  0  0
   -1.4520    1.8580    0.7570 C   0  0  0  0  0  0  0  0  0  0  0  0
   -4.0640   -1.3200   -0.7510 C   0  0  0  0  0  0  0  0  0  0  0  0
   -6.7040   -2.1690    1.8110 C   0  0  0  0  0  0  0  0  0  0  0  0
   -7.6470   -0.6420    0.2260 C   0  0  0  0  0  0  0  0  0  0  0  0
    3.4830   -0.0540    0.6020 C   0  0  2  0  0  0  0  0  0  0  0  0
    4.2500   -1.1690   -0.1110 C   0  0  0  0  0  0  0  0  0  0  0  0
    3.2970   -2.3270   -0.4180 C   0  0  2  0  0  0  0  0  0  0  0  0
    2.8000   -2.9810    0.8920 C   0  0  0  0  0  0  0  0  0  0  0  0
    4.0300   -3.4400   -1.1340 C   0  0  0  0  0  0  0  0  0  0  0  0
    0.8930    0.3220    1.2450 O   0  0  0  0  0  0  0  0  0  0  0  0
    1.2010    0.6470    0.1180 C   0  0  0  0  0  0  0  0  0  0  0  0
    0.1610    1.2170   -0.8130 C   0  0  2  0  0  0  0  0  0  0  0  0
    0.2130    2.7600   -0.7980 C   0  0  2  0  0  0  0  0  0  0  0  0
   -2.0210   -0.0860   -0.7790 C   0  0  0  0  0  0  0  0  0  0  0  0
   -3.2340   -0.2540   -0.2190 O   0  0  0  0  0  0  0  0  0  0  0  0
   -5.3740   -1.3560   -0.0060 C   0  0  0  0  0  0  0  0  0  0  0  0
   -5.5030   -2.1360    1.1280 C   0  0  0  0  0  0  0  0  0  0  0  0
   -7.7760   -1.4210    1.3600 C   0  0  0  0  0  0  0  0  0  0  0  0
   -6.4460   -0.6090   -0.4570 C   0  0  0  0  0  0  0  0  0  0  0  0
   -1.6660   -0.8110   -1.6880 O   0  0  0  0  0  0  0  0  0  0  0  0
    2.4730    0.5000   -0.3020 N   0  0  0  0  0  0  0  0  0  0  0  0
    4.4580    1.0510    1.0150 C   0  0  1  0  0  0  0  0  0  0  0  0
    5.0980    1.5810   -0.1470 O   0  0  0  0  0  0  0  0  0  0  0  0
    3.7030    2.1500    1.7180 C   0  0  0  0  0  0  0  0  0  0  0  0
    3.6370    3.2540    1.2200 O   0  0  0  0  0  0  0  0  0  0  0  0
    2.7350   -4.4720    0.4940 C   0  0  0  0  0  0  0  0  0  0  0  0
    3.7010   -4.6280   -0.6000 N   0  0  0  0  0  0  0  0  0  0  0  0
    4.8020   -3.2830   -2.0560 O   0  0  0  0  0  0  0  0  0  0  0  0
    2.6160    2.6130    3.3510 H   0  0  0  0  0  0  0  0  0  0  0  0
    3.1550    1.0230    3.2970 H   0  0  0  0  0  0  0  0  0  0  0  0
   -0.6650    3.9710    0.9700 H   0  0  0  0  0  0  0  0  0  0  0  0
   -2.9150    3.4140   -2.2870 H   0  0  0  0  0  0  0  0  0  0  0  0
   -1.6500    2.3410   -2.9330 H   0  0  0  0  0  0  0  0  0  0  0  0
   -2.4710    1.9310   -1.4080 H   0  0  0  0  0  0  0  0  0  0  0  0
   -0.4670    5.5600   -0.8110 H   0  0  0  0  0  0  0  0  0  0  0  0
   -0.1540    5.0490   -2.4870 H   0  0  0  0  0  0  0  0  0  0  0  0
   -1.8170    5.4010   -1.9600 H   0  0  0  0  0  0  0  0  0  0  0  0
   -2.5230    1.9650    0.9290 H   0  0  0  0  0  0  0  0  0  0  0  0
   -0.9480    1.5440    1.6710 H   0  0  0  0  0  0  0  0  0  0  0  0
   -4.2530   -1.1390   -1.8090 H   0  0  0  0  0  0  0  0  0  0  0  0
   -3.5520   -2.2740   -0.6310 H   0  0  0  0  0  0  0  0  0  0  0  0
   -6.8060   -2.7820    2.6940 H   0  0  0  0  0  0  0  0  0  0  0  0
   -8.4850   -0.0580   -0.1260 H   0  0  0  0  0  0  0  0  0  0  0  0
    2.9950   -0.4580    1.4890 H   0  0  0  0  0  0  0  0  0  0  0  0
    4.6670   -0.7860   -1.0420 H   0  0  0  0  0  0  0  0  0  0  0  0
    5.0570   -1.5230    0.5300 H   0  0  0  0  0  0  0  0  0  0  0  0
    2.4540   -1.9780   -1.0140 H   0  0  0  0  0  0  0  0  0  0  0  0
    3.5140   -2.8240    1.7010 H   0  0  0  0  0  0  0  0  0  0  0  0
    1.8140   -2.6060    1.1650 H   0  0  0  0  0  0  0  0  0  0  0  0
    0.3100    0.8390   -1.8240 H   0  0  0  0  0  0  0  0  0  0  0  0
    1.1890    3.2440   -0.8500 H   0  0  0  0  0  0  0  0  0  0  0  0
   -4.6650   -2.7200    1.4800 H   0  0  0  0  0  0  0  0  0  0  0  0
   -8.7150   -1.4470    1.8940 H   0  0  0  0  0  0  0  0  0  0  0  0
   -6.3450    0.0010   -1.3430 H   0  0  0  0  0  0  0  0  0  0  0  0
    2.7190    0.7610   -1.2040 H   0  0  0  0  0  0  0  0  0  0  0  0
    5.2100    0.6390    1.6880 H   0  0  0  0  0  0  0  0  0  0  0  0
    4.4880    1.9650   -0.7910 H   0  0  0  0  0  0  0  0  0  0  0  0
    3.0160   -5.1010    1.3390 H   0  0  0  0  0  0  0  0  0  0  0  0
    1.7320   -4.7270    0.1510 H   0  0  0  0  0  0  0  0  0  0  0  0
    4.0560   -5.4800   -0.8990 H   0  0  0  0  0  0  0  0  0  0  0  0
  2 30  1  0  0  0  0
 30 31  2  0  0  0  0
 28 30  1  0  0  0  0
 28 29  1  0  0  0  0
 11 28  1  0  0  0  0
  4  6  1  0  0  0  0
 11 27  1  0  0  0  0
 11 12  1  0  0  0  0
 17 27  1  0  0  0  0
  4 19  1  0  0  0  0
  3 19  1  0  0  0  0
 18 19  1  0  0  0  0
 12 13  1  0  0  0  0
  3  4  1  0  0  0  0
  4  5  1  0  0  0  0
 16 17  2  0  0  0  0
 17 18  1  0  0  0  0
  3  7  1  0  0  0  0
  1 18  1  0  0  0  0
 13 14  1  0  0  0  0
 13 15  1  0  0  0  0
 14 32  1  0  0  0  0
  1  7  1  0  0  0  0
  1 20  1  0  0  0  0
 15 34  2  0  0  0  0
 15 33  1  0  0  0  0
 32 33  1  0  0  0  0
  9 23  2  0  0  0  0
  9 24  1  0  0  0  0
 20 26  2  0  0  0  0
 20 21  1  0  0  0  0
 22 23  1  0  0  0  0
 10 24  2  0  0  0  0
  8 21  1  0  0  0  0
  8 22  1  0  0  0  0
 22 25  2  0  0  0  0
 10 25  1  0  0  0  0
  2 35  1  0  0  0  0
  2 36  1  0  0  0  0
  3 37  1  0  0  0  0
  5 38  1  0  0  0  0
  5 39  1  0  0  0  0
  5 40  1  0  0  0  0
  6 41  1  0  0  0  0
  6 42  1  0  0  0  0
  6 43  1  0  0  0  0
  7 44  1  0  0  0  0
  7 45  1  0  0  0  0
  8 46  1  0  0  0  0
  8 47  1  0  0  0  0
  9 48  1  0  0  0  0
 10 49  1  0  0  0  0
 11 50  1  0  0  0  0
 12 51  1  0  0  0  0
 12 52  1  0  0  0  0
 13 53  1  0  0  0  0
 14 54  1  0  0  0  0
 14 55  1  0  0  0  0
 18 56  1  0  0  0  0
 19 57  1  0  0  0  0
 23 58  1  0  0  0  0
 24 59  1  0  0  0  0
 25 60  1  0  0  0  0
 27 61  1  0  0  0  0
 28 62  1  0  0  0  0
 29 63  1  0  0  0  0
 32 64  1  0  0  0  0
 32 65  1  0  0  0  0
 33 66  1  0  0  0  0
M  END
> <OPENEYE_ISO_SMILES>
CC1([C@@H]2[C@H]1[C@H](N(C2)C(=O)OCc3ccccc3)C(=O)N[C@@H](C[C@@H]4CCNC4=O)[C@H](C(=O)N)O)C

> <OPENEYE_INCHI>
InChI=1S/C24H32N4O6/c1-24(2)15-11-28(23(33)34-12-13-6-4-3-5-7-13)18(17(15)24)22(32)27-16(19(29)20(25)30)10-14-8-9-26-21(14)31/h3-7,14-19,29H,8-12H2,1-2H3,(H2,25,30)(H,26,31)(H,27,32)/t14-,15-,16-,17-,18-,19+/m0/s1

> <OPENEYE_INCHIKEY>
QQHOBZCFMWFGGP-KOUJMVCDSA-N

> <FORMULA>
C24H32N4O6

$$$$
