RLU
  -OEChem-02242320043D

 37 39  0     1  0  0  0  0  0999 V2000
    5.4330    0.6000   -1.0620 C   0  0  0  0  0  0  0  0  0  0  0  0
    6.7220    0.2180   -1.1100 C   0  0  0  0  0  0  0  0  0  0  0  0
    4.7220   -0.4050   -0.2810 C   0  0  0  0  0  0  0  0  0  0  0  0
    3.3940   -0.5930    0.1290 C   0  0  0  0  0  0  0  0  0  0  0  0
    2.3390    0.3790   -0.2400 C   0  0  0  0  0  0  0  0  0  0  0  0
   -2.2510    0.9110   -1.0760 C   0  0  0  0  0  0  0  0  0  0  0  0
   -3.4950    0.3080   -1.0940 C   0  0  0  0  0  0  0  0  0  0  0  0
    5.6900   -1.3650    0.1000 C   0  0  0  0  0  0  0  0  0  0  0  0
   -0.8670    3.3810    0.5980 C   0  0  0  0  0  0  0  0  0  0  0  0
    0.0800    2.2680    0.9660 C   0  0  0  0  0  0  0  0  0  0  0  0
    0.0440    1.1890   -0.1180 C   0  0  2  0  0  0  0  0  0  0  0  0
   -1.3140    0.5360   -0.1320 C   0  0  0  0  0  0  0  0  0  0  0  0
   -1.6220   -0.4380    0.7990 C   0  0  0  0  0  0  0  0  0  0  0  0
   -2.8680   -1.0370    0.7870 C   0  0  0  0  0  0  0  0  0  0  0  0
   -3.8040   -0.6660   -0.1620 C   0  0  0  0  0  0  0  0  0  0  0  0
    4.0420   -2.5360    1.1900 C   0  0  0  0  0  0  0  0  0  0  0  0
    1.0680    0.1800    0.1630 N   0  0  0  0  0  0  0  0  0  0  0  0
    6.8880   -0.9530   -0.4210 N   0  0  0  0  0  0  0  0  0  0  0  0
    5.3010   -2.4010    0.8280 N   0  0  0  0  0  0  0  0  0  0  0  0
    3.1060   -1.6690    0.8600 N   0  0  0  0  0  0  0  0  0  0  0  0
   -1.4090    3.3810   -0.4820 O   0  0  0  0  0  0  0  0  0  0  0  0
    2.6190    1.3550   -0.9080 O   0  0  0  0  0  0  0  0  0  0  0  0
   -1.1090    4.3720    1.4700 O   0  0  0  0  0  0  0  0  0  0  0  0
   -5.5080   -1.4860   -0.1800 Br  0  0  0  0  0  0  0  0  0  0  0  0
    5.0070    1.4850   -1.5120 H   0  0  0  0  0  0  0  0  0  0  0  0
    7.5100    0.7560   -1.6170 H   0  0  0  0  0  0  0  0  0  0  0  0
   -2.0100    1.6720   -1.8040 H   0  0  0  0  0  0  0  0  0  0  0  0
   -4.2260    0.5980   -1.8340 H   0  0  0  0  0  0  0  0  0  0  0  0
    1.0920    2.6650    1.0510 H   0  0  0  0  0  0  0  0  0  0  0  0
   -0.2210    1.8350    1.9200 H   0  0  0  0  0  0  0  0  0  0  0  0
    0.2390    1.6430   -1.0890 H   0  0  0  0  0  0  0  0  0  0  0  0
   -0.8900   -0.7300    1.5370 H   0  0  0  0  0  0  0  0  0  0  0  0
   -3.1080   -1.7980    1.5140 H   0  0  0  0  0  0  0  0  0  0  0  0
    3.7640   -3.3940    1.7840 H   0  0  0  0  0  0  0  0  0  0  0  0
    0.8320   -0.6310    0.6400 H   0  0  0  0  0  0  0  0  0  0  0  0
    7.7310   -1.4220   -0.3160 H   0  0  0  0  0  0  0  0  0  0  0  0
   -1.7240    5.0640    1.1900 H   0  0  0  0  0  0  0  0  0  0  0  0
 15 24  1  0  0  0  0
 14 15  2  0  0  0  0
 13 14  1  0  0  0  0
  7 15  1  0  0  0  0
 12 13  2  0  0  0  0
  6  7  2  0  0  0  0
  6 12  1  0  0  0  0
 11 12  1  0  0  0  0
 10 11  1  0  0  0  0
  9 10  1  0  0  0  0
 11 17  1  0  0  0  0
  9 21  2  0  0  0  0
  9 23  1  0  0  0  0
  5 22  2  0  0  0  0
  5 17  1  0  0  0  0
  4  5  1  0  0  0  0
  4 20  2  0  0  0  0
  3  4  1  0  0  0  0
  1  3  1  0  0  0  0
  1  2  2  0  0  0  0
 16 20  1  0  0  0  0
  3  8  2  0  0  0  0
  2 18  1  0  0  0  0
 16 19  2  0  0  0  0
  8 18  1  0  0  0  0
  8 19  1  0  0  0  0
  1 25  1  0  0  0  0
  2 26  1  0  0  0  0
  6 27  1  0  0  0  0
  7 28  1  0  0  0  0
 10 29  1  0  0  0  0
 10 30  1  0  0  0  0
 11 31  1  0  0  0  0
 13 32  1  0  0  0  0
 14 33  1  0  0  0  0
 16 34  1  0  0  0  0
 17 35  1  0  0  0  0
 18 36  1  0  0  0  0
 23 37  1  0  0  0  0
M  END
> <OPENEYE_ISO_SMILES>
c1cc(ccc1[C@@H](CC(=O)O)NC(=O)c2c3cc[nH]c3ncn2)Br

> <OPENEYE_INCHI>
InChI=1S/C16H13BrN4O3/c17-10-3-1-9(2-4-10)12(7-13(22)23)21-16(24)14-11-5-6-18-15(11)20-8-19-14/h1-6,8,12H,7H2,(H,21,24)(H,22,23)(H,18,19,20)/t12-/m1/s1

> <OPENEYE_INCHIKEY>
FSOPVDVKYHLXNE-GFCCVEGCSA-N

> <FORMULA>
C16H13BrN4O3

$$$$
