V34
  -OEChem-02242320043D

 73 75  0     1  0  0  0  0  0999 V2000
    8.8510    2.5430    2.8820 C   0  0  0  0  0  0  0  0  0  0  0  0
    8.1680    2.4560    1.5150 C   0  0  0  0  0  0  0  0  0  0  0  0
    6.9800    1.6280    1.6190 O   0  0  0  0  0  0  0  0  0  0  0  0
    6.2580    1.4490    0.4950 C   0  0  0  0  0  0  0  0  0  0  0  0
    6.6120    1.9720   -0.5440 O   0  0  0  0  0  0  0  0  0  0  0  0
    5.0440    0.6220    0.5250 C   0  0  0  0  0  0  0  0  0  0  0  0
    4.3310    0.4460   -0.5850 C   0  0  0  0  0  0  0  0  0  0  0  0
    3.0850   -0.4020   -0.5530 C   0  0  2  0  0  0  0  0  0  0  0  0
    3.2430   -1.5750   -1.5230 C   0  0  0  0  0  0  0  0  0  0  0  0
    4.3590   -2.4980   -1.0290 C   0  0  2  0  0  0  0  0  0  0  0  0
    4.6490   -3.6020   -2.0730 C   0  0  0  0  0  0  0  0  0  0  0  0
    4.9570   -4.8160   -1.1690 C   0  0  0  0  0  0  0  0  0  0  0  0
    4.2560   -4.5540    0.0930 N   0  0  0  0  0  0  0  0  0  0  0  0
    3.9130   -3.2580    0.2000 C   0  0  0  0  0  0  0  0  0  0  0  0
    3.3310   -2.7700    1.1460 O   0  0  0  0  0  0  0  0  0  0  0  0
    1.9320    0.4090   -0.9520 N   0  0  0  0  0  0  0  0  0  0  0  0
    0.7030    0.1040   -0.4920 C   0  0  0  0  0  0  0  0  0  0  0  0
    0.5350   -0.8950    0.1750 O   0  0  0  0  0  0  0  0  0  0  0  0
   -0.4640    1.0040   -0.8080 C   0  0  2  0  0  0  0  0  0  0  0  0
   -0.1970    2.4020   -0.2470 C   0  0  0  0  0  0  0  0  0  0  0  0
   -1.3220    3.3470   -0.6730 C   0  0  0  0  0  0  0  0  0  0  0  0
   -1.1210    4.7110   -0.0110 C   0  0  0  0  0  0  0  0  0  0  0  0
   -1.3010    3.5100   -2.1940 C   0  0  0  0  0  0  0  0  0  0  0  0
   -1.6800    0.4580   -0.1990 N   0  0  0  0  0  0  0  0  0  0  0  0
   -2.8870    0.7570   -0.7200 C   0  0  0  0  0  0  0  0  0  0  0  0
   -2.9670    1.4800   -1.6950 O   0  0  0  0  0  0  0  0  0  0  0  0
   -4.1060    0.2100   -0.1100 C   0  0  0  0  0  0  0  0  0  0  0  0
   -5.3750    0.4380   -0.5410 C   0  0  0  0  0  0  0  0  0  0  0  0
   -6.2540   -0.2670    0.3120 C   0  0  0  0  0  0  0  0  0  0  0  0
   -7.6530   -0.4050    0.3560 C   0  0  0  0  0  0  0  0  0  0  0  0
   -8.4300    0.2240   -0.5630 O   0  0  0  0  0  0  0  0  0  0  0  0
   -9.8420    0.0360   -0.4550 C   0  0  0  0  0  0  0  0  0  0  0  0
   -8.2310   -1.1840    1.3380 C   0  0  0  0  0  0  0  0  0  0  0  0
   -7.4400   -1.8290    2.2790 C   0  0  0  0  0  0  0  0  0  0  0  0
   -6.0690   -1.7040    2.2500 C   0  0  0  0  0  0  0  0  0  0  0  0
   -5.4600   -0.9250    1.2710 C   0  0  0  0  0  0  0  0  0  0  0  0
   -4.1470   -0.6250    0.9920 N   0  0  0  0  0  0  0  0  0  0  0  0
    9.1330    1.5420    3.2100 H   0  0  0  0  0  0  0  0  0  0  0  0
    9.7420    3.1650    2.8030 H   0  0  0  0  0  0  0  0  0  0  0  0
    8.1630    2.9820    3.6040 H   0  0  0  0  0  0  0  0  0  0  0  0
    7.8850    3.4570    1.1860 H   0  0  0  0  0  0  0  0  0  0  0  0
    8.8550    2.0170    0.7930 H   0  0  0  0  0  0  0  0  0  0  0  0
    4.7290    0.1580    1.4490 H   0  0  0  0  0  0  0  0  0  0  0  0
    4.6450    0.9100   -1.5080 H   0  0  0  0  0  0  0  0  0  0  0  0
    2.9300   -0.7830    0.4560 H   0  0  0  0  0  0  0  0  0  0  0  0
    2.3070   -2.1320   -1.5740 H   0  0  0  0  0  0  0  0  0  0  0  0
    3.4950   -1.1970   -2.5130 H   0  0  0  0  0  0  0  0  0  0  0  0
    5.2620   -1.9250   -0.8190 H   0  0  0  0  0  0  0  0  0  0  0  0
    3.7740   -3.7910   -2.6950 H   0  0  0  0  0  0  0  0  0  0  0  0
    5.5120   -3.3420   -2.6850 H   0  0  0  0  0  0  0  0  0  0  0  0
    4.5820   -5.7320   -1.6260 H   0  0  0  0  0  0  0  0  0  0  0  0
    6.0310   -4.8950   -0.9960 H   0  0  0  0  0  0  0  0  0  0  0  0
    4.0640   -5.2280    0.7630 H   0  0  0  0  0  0  0  0  0  0  0  0
    2.0540    1.1660   -1.5460 H   0  0  0  0  0  0  0  0  0  0  0  0
   -0.5950    1.0650   -1.8880 H   0  0  0  0  0  0  0  0  0  0  0  0
   -0.1550    2.3550    0.8410 H   0  0  0  0  0  0  0  0  0  0  0  0
    0.7540    2.7720   -0.6310 H   0  0  0  0  0  0  0  0  0  0  0  0
   -2.2820    2.9310   -0.3650 H   0  0  0  0  0  0  0  0  0  0  0  0
   -0.1610    5.1270   -0.3190 H   0  0  0  0  0  0  0  0  0  0  0  0
   -1.9230    5.3840   -0.3150 H   0  0  0  0  0  0  0  0  0  0  0  0
   -1.1350    4.5950    1.0730 H   0  0  0  0  0  0  0  0  0  0  0  0
   -1.4450    2.5380   -2.6660 H   0  0  0  0  0  0  0  0  0  0  0  0
   -2.1030    4.1830   -2.4980 H   0  0  0  0  0  0  0  0  0  0  0  0
   -0.3420    3.9260   -2.5020 H   0  0  0  0  0  0  0  0  0  0  0  0
   -1.6170   -0.1190    0.5780 H   0  0  0  0  0  0  0  0  0  0  0  0
   -5.6600    1.0480   -1.3850 H   0  0  0  0  0  0  0  0  0  0  0  0
  -10.3440    0.5920   -1.2470 H   0  0  0  0  0  0  0  0  0  0  0  0
  -10.0770   -1.0240   -0.5490 H   0  0  0  0  0  0  0  0  0  0  0  0
  -10.1840    0.3980    0.5150 H   0  0  0  0  0  0  0  0  0  0  0  0
   -9.3050   -1.2930    1.3740 H   0  0  0  0  0  0  0  0  0  0  0  0
   -7.9060   -2.4350    3.0420 H   0  0  0  0  0  0  0  0  0  0  0  0
   -5.4660   -2.2120    2.9890 H   0  0  0  0  0  0  0  0  0  0  0  0
   -3.3770   -0.9440    1.4880 H   0  0  0  0  0  0  0  0  0  0  0  0
 14 15  2  0  0  0  0
 34 35  2  0  0  0  0
 35 36  1  0  0  0  0
 33 34  1  0  0  0  0
 36 37  1  0  0  0  0
 27 37  1  0  0  0  0
 13 14  1  0  0  0  0
 10 14  1  0  0  0  0
 29 36  2  0  0  0  0
 12 13  1  0  0  0  0
 25 26  2  0  0  0  0
 30 33  2  0  0  0  0
 25 27  1  0  0  0  0
 27 28  2  0  0  0  0
 24 25  1  0  0  0  0
 29 30  1  0  0  0  0
 28 29  1  0  0  0  0
  9 10  1  0  0  0  0
 10 11  1  0  0  0  0
 30 31  1  0  0  0  0
 11 12  1  0  0  0  0
  8  9  1  0  0  0  0
 19 24  1  0  0  0  0
 21 22  1  0  0  0  0
  8 16  1  0  0  0  0
 16 17  1  0  0  0  0
 31 32  1  0  0  0  0
 17 19  1  0  0  0  0
 19 20  1  0  0  0  0
  7  8  1  0  0  0  0
 17 18  2  0  0  0  0
 20 21  1  0  0  0  0
 21 23  1  0  0  0  0
  6  7  2  0  0  0  0
  4  6  1  0  0  0  0
  4  5  2  0  0  0  0
  3  4  1  0  0  0  0
  2  3  1  0  0  0  0
  1  2  1  0  0  0  0
  1 38  1  0  0  0  0
  1 39  1  0  0  0  0
  1 40  1  0  0  0  0
  2 41  1  0  0  0  0
  2 42  1  0  0  0  0
  6 43  1  0  0  0  0
  7 44  1  0  0  0  0
  8 45  1  0  0  0  0
  9 46  1  0  0  0  0
  9 47  1  0  0  0  0
 10 48  1  0  0  0  0
 11 49  1  0  0  0  0
 11 50  1  0  0  0  0
 12 51  1  0  0  0  0
 12 52  1  0  0  0  0
 13 53  1  0  0  0  0
 16 54  1  0  0  0  0
 19 55  1  0  0  0  0
 20 56  1  0  0  0  0
 20 57  1  0  0  0  0
 21 58  1  0  0  0  0
 22 59  1  0  0  0  0
 22 60  1  0  0  0  0
 22 61  1  0  0  0  0
 23 62  1  0  0  0  0
 23 63  1  0  0  0  0
 23 64  1  0  0  0  0
 24 65  1  0  0  0  0
 28 66  1  0  0  0  0
 32 67  1  0  0  0  0
 32 68  1  0  0  0  0
 32 69  1  0  0  0  0
 33 70  1  0  0  0  0
 34 71  1  0  0  0  0
 35 72  1  0  0  0  0
 37 73  1  0  0  0  0
M  END
> <OPENEYE_ISO_SMILES>
CCOC(=O)/C=C/[C@H](C[C@@H]1CCNC1=O)NC(=O)[C@H](CC(C)C)NC(=O)c2cc3c([nH]2)cccc3OC

> <OPENEYE_INCHI>
InChI=1S/C27H36N4O6/c1-5-37-24(32)10-9-18(14-17-11-12-28-25(17)33)29-26(34)21(13-16(2)3)31-27(35)22-15-19-20(30-22)7-6-8-23(19)36-4/h6-10,15-18,21,30H,5,11-14H2,1-4H3,(H,28,33)(H,29,34)(H,31,35)/b10-9+/t17-,18+,21-/m0/s1

> <OPENEYE_INCHIKEY>
LBYBJSLPFZFADD-BNMFZAHFSA-N

> <FORMULA>
C27H36N4O6

$$$$
