LJ6
  -OEChem-02242320033D

 33 33  0     1  0  0  0  0  0999 V2000
    3.5150   -0.6470    0.5640 N   0  0  0  0  0  0  0  0  0  0  0  0
    1.6180   -0.1260   -0.3660 C   0  0  0  0  0  0  0  0  0  0  0  0
    2.3960   -1.1810    0.1650 C   0  0  0  0  0  0  0  0  0  0  0  0
    2.0080   -2.6340    0.2520 C   0  0  0  0  0  0  0  0  0  0  0  0
    2.4020    0.9680   -0.2150 C   0  0  0  0  0  0  0  0  0  0  0  0
    2.0650    2.3810   -0.6140 C   0  0  0  0  0  0  0  0  0  0  0  0
   -3.1060    0.2730    1.7720 C   0  0  0  0  0  0  0  0  0  0  0  0
   -0.6850    1.4220    0.6960 C   0  0  0  0  0  0  0  0  0  0  0  0
   -0.8070    0.0030    0.1370 C   0  0  2  0  0  0  0  0  0  0  0  0
    0.2370   -0.2030   -0.9630 C   0  0  0  0  0  0  0  0  0  0  0  0
    3.5360    0.5450    0.3610 O   0  0  0  0  0  0  0  0  0  0  0  0
   -2.1860   -0.1950   -0.4360 C   0  0  0  0  0  0  0  0  0  0  0  0
   -2.3220   -0.4730   -1.6080 O   0  0  0  0  0  0  0  0  0  0  0  0
   -3.2700   -0.0630    0.3550 N   0  0  0  0  0  0  0  0  0  0  0  0
   -4.6110   -0.2550   -0.2020 C   0  0  0  0  0  0  0  0  0  0  0  0
    1.5050   -2.8200    1.2010 H   0  0  0  0  0  0  0  0  0  0  0  0
    1.3370   -2.8810   -0.5700 H   0  0  0  0  0  0  0  0  0  0  0  0
    2.9030   -3.2530    0.1880 H   0  0  0  0  0  0  0  0  0  0  0  0
    1.5750    2.8870    0.2180 H   0  0  0  0  0  0  0  0  0  0  0  0
    2.9800    2.9130   -0.8740 H   0  0  0  0  0  0  0  0  0  0  0  0
    1.3970    2.3660   -1.4750 H   0  0  0  0  0  0  0  0  0  0  0  0
   -3.1120    1.3570    1.8910 H   0  0  0  0  0  0  0  0  0  0  0  0
   -3.9250   -0.1610    2.3450 H   0  0  0  0  0  0  0  0  0  0  0  0
   -2.1580   -0.1270    2.1330 H   0  0  0  0  0  0  0  0  0  0  0  0
   -1.4280    1.5680    1.4800 H   0  0  0  0  0  0  0  0  0  0  0  0
    0.3130    1.5650    1.1100 H   0  0  0  0  0  0  0  0  0  0  0  0
   -0.8530    2.1430   -0.1040 H   0  0  0  0  0  0  0  0  0  0  0  0
   -0.6380   -0.7190    0.9370 H   0  0  0  0  0  0  0  0  0  0  0  0
    0.1240    0.5740   -1.7200 H   0  0  0  0  0  0  0  0  0  0  0  0
    0.0930   -1.1810   -1.4220 H   0  0  0  0  0  0  0  0  0  0  0  0
   -4.5330   -0.4970   -1.2620 H   0  0  0  0  0  0  0  0  0  0  0  0
   -5.1080   -1.0720    0.3220 H   0  0  0  0  0  0  0  0  0  0  0  0
   -5.1900    0.6600   -0.0790 H   0  0  0  0  0  0  0  0  0  0  0  0
  8  9  1  0  0  0  0
  5  6  1  0  0  0  0
  9 12  1  0  0  0  0
  9 10  1  0  0  0  0
 12 13  2  0  0  0  0
  5 11  1  0  0  0  0
  1 11  1  0  0  0  0
 12 14  1  0  0  0  0
  2  5  2  0  0  0  0
  1  3  2  0  0  0  0
 14 15  1  0  0  0  0
  7 14  1  0  0  0  0
  2 10  1  0  0  0  0
  2  3  1  0  0  0  0
  3  4  1  0  0  0  0
  4 16  1  0  0  0  0
  4 17  1  0  0  0  0
  4 18  1  0  0  0  0
  6 19  1  0  0  0  0
  6 20  1  0  0  0  0
  6 21  1  0  0  0  0
  7 22  1  0  0  0  0
  7 23  1  0  0  0  0
  7 24  1  0  0  0  0
  8 25  1  0  0  0  0
  8 26  1  0  0  0  0
  8 27  1  0  0  0  0
  9 28  1  0  0  0  0
 10 29  1  0  0  0  0
 10 30  1  0  0  0  0
 15 31  1  0  0  0  0
 15 32  1  0  0  0  0
 15 33  1  0  0  0  0
M  END
> <OPENEYE_ISO_SMILES>
Cc1c(c(on1)C)C[C@@H](C)C(=O)N(C)C

> <OPENEYE_INCHI>
InChI=1S/C11H18N2O2/c1-7(11(14)13(4)5)6-10-8(2)12-15-9(10)3/h7H,6H2,1-5H3/t7-/m1/s1

> <OPENEYE_INCHIKEY>
NIHQHFJWDDQIMY-SSDOTTSWSA-N

> <FORMULA>
C11H18N2O2

$$$$
