UH8
  -OEChem-02242320043D

 41 43  0     1  0  0  0  0  0999 V2000
    2.2180   -1.1470    0.4500 C   0  0  2  0  0  0  0  0  0  0  0  0
    2.0290    0.3600   -1.4060 C   0  0  2  0  0  0  0  0  0  0  0  0
    3.9330   -0.5100   -2.5730 C   0  0  0  0  0  0  0  0  0  0  0  0
    1.6020    1.5110   -0.4910 C   0  0  1  0  0  0  0  0  0  0  0  0
   -0.6610    0.4390   -0.3550 C   0  0  0  0  0  0  0  0  0  0  0  0
   -1.9350    0.9130   -0.2310 C   0  0  0  0  0  0  0  0  0  0  0  0
   -3.1820    0.1100   -0.1590 C   0  0  0  0  0  0  0  0  0  0  0  0
    0.1420    1.5270   -0.3720 N   0  0  0  0  0  0  0  0  0  0  0  0
    1.7430   -2.5090    0.9600 C   0  0  0  0  0  0  0  0  0  0  0  0
    2.2320   -3.5380    0.0970 O   0  0  0  0  0  0  0  0  0  0  0  0
   -5.5620   -0.0560   -0.0750 C   0  0  0  0  0  0  0  0  0  0  0  0
   -4.4300    0.7380   -0.1420 C   0  0  0  0  0  0  0  0  0  0  0  0
    2.2260    1.3090    0.8940 C   0  0  2  0  0  0  0  0  0  0  0  0
    1.7990   -0.0570    1.4400 C   0  0  2  0  0  0  0  0  0  0  0  0
   -3.1260   -1.2810   -0.1130 C   0  0  0  0  0  0  0  0  0  0  0  0
   -5.4240   -1.4310   -0.0270 C   0  0  0  0  0  0  0  0  0  0  0  0
   -4.2310   -1.9950   -0.0500 N   0  0  0  0  0  0  0  0  0  0  0  0
   -1.8340    2.2530   -0.1860 N   0  0  0  0  0  0  0  0  0  0  0  0
   -0.5920    2.5780   -0.2670 N   0  0  0  0  0  0  0  0  0  0  0  0
    1.6290   -0.8830   -0.8250 O   0  0  0  0  0  0  0  0  0  0  0  0
    3.4490    0.3780   -1.5630 O   0  0  0  0  0  0  0  0  0  0  0  0
    1.7740    2.3390    1.7760 O   0  0  0  0  0  0  0  0  0  0  0  0
    2.4330   -0.2870    2.7000 O   0  0  0  0  0  0  0  0  0  0  0  0
    3.3040   -1.1530    0.3550 H   0  0  0  0  0  0  0  0  0  0  0  0
    1.5540    0.4750   -2.3800 H   0  0  0  0  0  0  0  0  0  0  0  0
    3.4990   -0.2370   -3.5350 H   0  0  0  0  0  0  0  0  0  0  0  0
    5.0190   -0.4380   -2.6310 H   0  0  0  0  0  0  0  0  0  0  0  0
    3.6500   -1.5330   -2.3240 H   0  0  0  0  0  0  0  0  0  0  0  0
    1.9450    2.4560   -0.9100 H   0  0  0  0  0  0  0  0  0  0  0  0
   -0.3560   -0.5950   -0.4210 H   0  0  0  0  0  0  0  0  0  0  0  0
    2.1200   -2.6710    1.9690 H   0  0  0  0  0  0  0  0  0  0  0  0
    0.6530   -2.5320    0.9710 H   0  0  0  0  0  0  0  0  0  0  0  0
    1.9680   -4.4300    0.3600 H   0  0  0  0  0  0  0  0  0  0  0  0
   -6.5440    0.3950   -0.0560 H   0  0  0  0  0  0  0  0  0  0  0  0
   -4.5090    1.8140   -0.1810 H   0  0  0  0  0  0  0  0  0  0  0  0
    3.3120    1.3480    0.8140 H   0  0  0  0  0  0  0  0  0  0  0  0
    0.7170   -0.0760    1.5670 H   0  0  0  0  0  0  0  0  0  0  0  0
   -2.1680   -1.7790   -0.1290 H   0  0  0  0  0  0  0  0  0  0  0  0
   -6.3050   -2.0520    0.0290 H   0  0  0  0  0  0  0  0  0  0  0  0
    2.1310    2.2730    2.6720 H   0  0  0  0  0  0  0  0  0  0  0  0
    2.2120   -1.1370    3.1020 H   0  0  0  0  0  0  0  0  0  0  0  0
  3 21  1  0  0  0  0
  2 21  1  0  0  0  0
  1  9  1  0  0  0  0
  9 10  1  0  0  0  0
  1 20  1  0  0  0  0
  1 14  1  0  0  0  0
  2 20  1  0  0  0  0
  2  4  1  0  0  0  0
 14 23  1  0  0  0  0
 13 14  1  0  0  0  0
  4 13  1  0  0  0  0
  4  8  1  0  0  0  0
 13 22  1  0  0  0  0
  5  8  1  0  0  0  0
  8 19  1  0  0  0  0
  5  6  2  0  0  0  0
 18 19  2  0  0  0  0
  6 18  1  0  0  0  0
  6  7  1  0  0  0  0
  7 12  2  0  0  0  0
 11 12  1  0  0  0  0
  7 15  1  0  0  0  0
 11 16  2  0  0  0  0
 15 17  2  0  0  0  0
 16 17  1  0  0  0  0
  1 24  1  0  0  0  0
  2 25  1  0  0  0  0
  3 26  1  0  0  0  0
  3 27  1  0  0  0  0
  3 28  1  0  0  0  0
  4 29  1  0  0  0  0
  5 30  1  0  0  0  0
  9 31  1  0  0  0  0
  9 32  1  0  0  0  0
 10 33  1  0  0  0  0
 11 34  1  0  0  0  0
 12 35  1  0  0  0  0
 13 36  1  0  0  0  0
 14 37  1  0  0  0  0
 15 38  1  0  0  0  0
 16 39  1  0  0  0  0
 22 40  1  0  0  0  0
 23 41  1  0  0  0  0
M  END
> <OPENEYE_ISO_SMILES>
CO[C@@H]1[C@H]([C@H]([C@@H]([C@H](O1)CO)O)O)n2cc(nn2)c3cccnc3

> <OPENEYE_INCHI>
InChI=1S/C14H18N4O5/c1-22-14-11(13(21)12(20)10(7-19)23-14)18-6-9(16-17-18)8-3-2-4-15-5-8/h2-6,10-14,19-21H,7H2,1H3/t10-,11+,12-,13-,14+/m1/s1

> <OPENEYE_INCHIKEY>
GWSVVXWGZNVVOP-ITGHMWBKSA-N

> <FORMULA>
C14H18N4O5

$$$$
