T7D
  -OEChem-02242320043D

 36 37  0     0  0  0  0  0  0999 V2000
    0.6890    0.3140    0.2190 N   0  0  0  0  0  0  0  0  0  0  0  0
   -0.6760   -0.1190    0.5300 C   0  0  0  0  0  0  0  0  0  0  0  0
   -1.2760   -0.8280   -0.6870 C   0  0  0  0  0  0  0  0  0  0  0  0
   -2.6900   -1.3090   -0.3470 C   0  0  0  0  0  0  0  0  0  0  0  0
    1.7180   -0.5440    0.3650 C   0  0  0  0  0  0  0  0  0  0  0  0
    3.0950   -0.1080    0.0520 C   0  0  0  0  0  0  0  0  0  0  0  0
    5.4450   -0.5800   -0.0920 C   0  0  0  0  0  0  0  0  0  0  0  0
    3.3340    1.1940   -0.3910 C   0  0  0  0  0  0  0  0  0  0  0  0
   -3.4760   -0.1640    0.1330 N   0  0  0  0  0  0  0  0  0  0  0  0
   -5.5150    1.2370    0.1510 C   0  0  0  0  0  0  0  0  0  0  0  0
   -5.0400   -0.4690   -1.4100 O   0  0  0  0  0  0  0  0  0  0  0  0
   -4.6610    0.1400   -0.4320 C   0  0  0  0  0  0  0  0  0  0  0  0
    5.6750    0.7100   -0.5360 C   0  0  0  0  0  0  0  0  0  0  0  0
    4.6220    1.5950   -0.6820 C   0  0  0  0  0  0  0  0  0  0  0  0
   -2.9460    0.6420    1.2410 C   0  0  0  0  0  0  0  0  0  0  0  0
   -1.5290    1.1020    0.8830 C   0  0  0  0  0  0  0  0  0  0  0  0
    4.1630   -0.9940    0.2020 C   0  0  0  0  0  0  0  0  0  0  0  0
    1.5130   -1.6770    0.7560 O   0  0  0  0  0  0  0  0  0  0  0  0
    0.8520    1.2170   -0.0970 H   0  0  0  0  0  0  0  0  0  0  0  0
   -0.6550   -0.8050    1.3760 H   0  0  0  0  0  0  0  0  0  0  0  0
   -1.3190   -0.1350   -1.5270 H   0  0  0  0  0  0  0  0  0  0  0  0
   -0.6540   -1.6830   -0.9520 H   0  0  0  0  0  0  0  0  0  0  0  0
   -3.1580   -1.7260   -1.2380 H   0  0  0  0  0  0  0  0  0  0  0  0
   -2.6390   -2.0700    0.4320 H   0  0  0  0  0  0  0  0  0  0  0  0
    6.2720   -1.2650    0.0240 H   0  0  0  0  0  0  0  0  0  0  0  0
    2.5130    1.8860   -0.5060 H   0  0  0  0  0  0  0  0  0  0  0  0
   -4.9760    1.7230    0.9640 H   0  0  0  0  0  0  0  0  0  0  0  0
   -5.7430    1.9690   -0.6230 H   0  0  0  0  0  0  0  0  0  0  0  0
   -6.4420    0.8110    0.5330 H   0  0  0  0  0  0  0  0  0  0  0  0
    6.6810    1.0290   -0.7660 H   0  0  0  0  0  0  0  0  0  0  0  0
    4.8080    2.6020   -1.0260 H   0  0  0  0  0  0  0  0  0  0  0  0
   -3.5840    1.5120    1.3970 H   0  0  0  0  0  0  0  0  0  0  0  0
   -2.9190    0.0410    2.1500 H   0  0  0  0  0  0  0  0  0  0  0  0
   -1.0890    1.6200    1.7350 H   0  0  0  0  0  0  0  0  0  0  0  0
   -1.5710    1.7770    0.0280 H   0  0  0  0  0  0  0  0  0  0  0  0
    3.9850   -2.0010    0.5490 H   0  0  0  0  0  0  0  0  0  0  0  0
 10 12  1  0  0  0  0
 11 12  2  0  0  0  0
  9 12  1  0  0  0  0
  9 15  1  0  0  0  0
 15 16  1  0  0  0  0
  2 16  1  0  0  0  0
  2  3  1  0  0  0  0
  3  4  1  0  0  0  0
  4  9  1  0  0  0  0
  1  2  1  0  0  0  0
  1  5  1  0  0  0  0
  5 18  2  0  0  0  0
  5  6  1  0  0  0  0
  6 17  2  0  0  0  0
  7 17  1  0  0  0  0
  7 13  2  0  0  0  0
 13 14  1  0  0  0  0
  8 14  2  0  0  0  0
  6  8  1  0  0  0  0
  1 19  1  0  0  0  0
  2 20  1  0  0  0  0
  3 21  1  0  0  0  0
  3 22  1  0  0  0  0
  4 23  1  0  0  0  0
  4 24  1  0  0  0  0
  7 25  1  0  0  0  0
  8 26  1  0  0  0  0
 10 27  1  0  0  0  0
 10 28  1  0  0  0  0
 10 29  1  0  0  0  0
 13 30  1  0  0  0  0
 14 31  1  0  0  0  0
 15 32  1  0  0  0  0
 15 33  1  0  0  0  0
 16 34  1  0  0  0  0
 16 35  1  0  0  0  0
 17 36  1  0  0  0  0
M  END
> <OPENEYE_ISO_SMILES>
CC(=O)N1CCC(CC1)NC(=O)c2ccccc2

> <OPENEYE_INCHI>
InChI=1S/C14H18N2O2/c1-11(17)16-9-7-13(8-10-16)15-14(18)12-5-3-2-4-6-12/h2-6,13H,7-10H2,1H3,(H,15,18)

> <OPENEYE_INCHIKEY>
KFVWQRVNMHXHKB-UHFFFAOYSA-N

> <FORMULA>
C14H18N2O2

$$$$
