@<TRIPOS>MOLECULE
/home/pku/3cl/gett_pdb/8E26/8E26_mol2/ligand/8E26_4WI.pdb
 68 70 0 0 0
SMALL
GASTEIGER

@<TRIPOS>ATOM
      1  C8       -16.9830    4.9210   25.7450 C.2   401  4WI401      0.2162
      2  C3       -21.1570    2.5730   24.3770 C.2   401  4WI401      0.0750
      3  C1       -21.6830    4.0940   27.4300 C.2   401  4WI401      0.2344
      4  C13      -20.3560    5.3820   30.0610 C.2   401  4WI401      0.2371
      5  C21      -19.9180    6.0010   33.2670 C.2   401  4WI401      0.3179
      6  C6       -18.8850    6.3250   25.3460 C.3   401  4WI401     -0.0262
      7  C7       -17.6240    7.1510   25.4930 C.3   401  4WI401      0.0123
      8  C10      -22.8460    5.4210   30.2810 C.3   401  4WI401      0.0192
      9  C5       -18.4950    4.9380   25.8420 C.3   401  4WI401      0.0390
     10  C9       -21.7620    3.7110   28.9070 C.3   401  4WI401      0.1058
     11  C11      -23.8420    4.2980   30.0480 C.3   401  4WI401     -0.0142
     12  C12      -23.1710    3.2170   29.2260 C.3   401  4WI401     -0.0037
     13  C18      -23.6600    2.9180   30.6240 C.3   401  4WI401     -0.0250
     14  C19      -22.6510    2.5940   31.7060 C.3   401  4WI401     -0.0592
     15  C20      -24.9880    2.2160   30.8200 C.3   401  4WI401     -0.0592
     16  C16      -19.9100    9.1430   31.0440 C.3   401  4WI401     -0.0579
     17  C17      -20.8140    8.1360   28.9480 C.3   401  4WI401     -0.0579
     18  C23      -18.4260    7.7790   29.5610 C.3   401  4WI401     -0.0579
     19  C4       -19.0900    3.7600   25.0880 C.3   401  4WI401     -0.0177
     20  C2       -20.6010    3.6500   25.2830 C.3   401  4WI401      0.0672
     21  C14      -20.2740    6.6470   30.9250 C.3   401  4WI401      0.1047
     22  C22      -18.9220    5.6670   34.3860 C.3   401  4WI401      0.4694
     23  C15      -19.8510    7.9120   30.1230 C.3   401  4WI401     -0.0108
     24  N5       -21.7830    2.7710   23.2920 N.2   401  4WI401     -0.3003
     25  N2       -16.5610    6.1510   25.4830 N.am  401  4WI401     -0.3151
     26  N3       -21.5750    4.8760   29.7830 N.am  401  4WI401     -0.2878
     27  N1       -20.9060    3.3260   26.6660 N.am  401  4WI401     -0.3054
     28  N4       -19.4260    6.3980   32.0870 N.am  401  4WI401     -0.2962
     29  O1       -16.2630    3.9120   25.8850 O.2   401  4WI401     -0.2755
     30  O2       -22.3160    5.0490   26.9850 O.2   401  4WI401     -0.2737
     31  O3       -19.3390    4.8550   29.6100 O.2   401  4WI401     -0.2735
     32  O4       -21.1010    5.8570   33.4980 O.2   401  4WI401     -0.2660
     33  F1       -18.0870    4.7050   34.0210 F     401  4WI401     -0.1620
     34  F2       -18.1850    6.7150   34.7590 F     401  4WI401     -0.1620
     35  F3       -19.5510    5.2230   35.4660 F     401  4WI401     -0.1620
     36  H5       -19.1710    6.2950   24.4100 H     401  4WI401      0.0288
     37  H6       -19.6100    6.7010   25.8860 H     401  4WI401      0.0288
     38  H7       -17.6270    7.6560   26.3370 H     401  4WI401      0.0462
     39  H8       -17.5230    7.7830   24.7470 H     401  4WI401      0.0462
     40  H11      -22.7820    5.6360   31.2280 H     401  4WI401      0.0468
     41  H12      -23.1020    6.2260   29.7850 H     401  4WI401      0.0468
     42  H4       -18.7460    4.8590   26.7980 H     401  4WI401      0.0395
     43  H10      -21.0920    3.0170   29.1150 H     401  4WI401      0.0600
     44  H13      -24.7850    4.5520   29.8060 H     401  4WI401      0.0325
     45  H14      -23.7090    2.7870   28.4670 H     401  4WI401      0.0332
     46  H23      -21.7560    2.6210   31.3390 H     401  4WI401      0.0235
     47  H24      -22.8240    1.7080   32.0610 H     401  4WI401      0.0235
     48  H25      -22.7230    3.2440   32.4230 H     401  4WI401      0.0235
     49  H26      -25.3900    2.0360   29.9570 H     401  4WI401      0.0235
     50  H27      -25.5820    2.7810   31.3380 H     401  4WI401      0.0235
     51  H28      -24.8510    1.3790   31.2900 H     401  4WI401      0.0235
     52  H17      -20.2030    8.8740   31.9320 H     401  4WI401      0.0236
     53  H19      -19.0290    9.5500   31.1090 H     401  4WI401      0.0236
     54  H18      -20.5370    9.7940   30.6850 H     401  4WI401      0.0236
     55  H20      -21.4970    7.4470   28.9460 H     401  4WI401      0.0236
     56  H21      -20.3250    8.1020   28.1090 H     401  4WI401      0.0236
     57  H22      -21.2410    9.0060   29.0320 H     401  4WI401      0.0236
     58  H29      -18.0520    6.9210   29.8170 H     401  4WI401      0.0236
     59  H30      -17.8650    8.4900   29.9150 H     401  4WI401      0.0236
     60  H31      -18.4470    7.8420   28.5910 H     401  4WI401      0.0236
     61  H2       -18.8960    3.8600   24.1320 H     401  4WI401      0.0294
     62  H3       -18.6650    2.9340   25.3980 H     401  4WI401      0.0294
     63  H32      -21.0200    4.5140   25.0480 H     401  4WI401      0.0564
     64  H15      -21.1780    6.8450   31.2680 H     401  4WI401      0.0600
     65  H36      -22.0460    2.0240   22.8960 H     401  4WI401      0.1865
     66  H9       -15.7230    6.3350   25.3130 H     401  4WI401      0.1487
     67  H1       -20.5700    2.5980   27.0010 H     401  4WI401      0.1494
     68  H16      -18.5620    6.5080   32.0210 H     401  4WI401      0.1497
@<TRIPOS>BOND
     1    65    24    1
     2    24     2    2
     3    61    19    1
     4     2    20    1
     5    36     6    1
     6    39     7    1
     7    63    20    1
     8    19    20    1
     9    19    62    1
    10    19     9    1
    11    20    27    1
    12    66    25    1
    13     6     7    1
    14     6     9    1
    15     6    37    1
    16    25     7    1
    17    25     1   am
    18     7    38    1
    19     1     9    1
    20     1    29    2
    21     9    42    1
    22    27    67    1
    23    27     3   am
    24    30     3    2
    25     3    10    1
    26    56    17    1
    27    45    12    1
    28    60    18    1
    29    10    43    1
    30    10    12    1
    31    10    26    1
    32    55    17    1
    33    17    57    1
    34    17    23    1
    35    12    11    1
    36    12    13    1
    37    18    58    1
    38    18    59    1
    39    18    23    1
    40    31     4    2
    41    26     4   am
    42    26     8    1
    43    41     8    1
    44    44    11    1
    45    49    15    1
    46    11     8    1
    47    11    13    1
    48     4    21    1
    49    23    21    1
    50    23    16    1
    51     8    40    1
    52    13    15    1
    53    13    14    1
    54    54    16    1
    55    15    51    1
    56    15    50    1
    57    21    64    1
    58    21    28    1
    59    16    53    1
    60    16    52    1
    61    46    14    1
    62    14    47    1
    63    14    48    1
    64    68    28    1
    65    28     5   am
    66     5    32    2
    67     5    22    1
    68    33    22    1
    69    22    34    1
    70    22    35    1
