@<TRIPOS>MOLECULE
/home/pku/3cl/gett_pdb/5SPL/5SPL_mol2/ligand/5SPL_RW5.pdb
 44 47 0 0 0
SMALL
GASTEIGER

@<TRIPOS>ATOM
      1  C18      -45.4190  -32.1650    0.0450 C.ar  201  RW5201      0.1256
      2  C17      -44.4950  -31.1370    0.6740 C.3   201  RW5201      0.0845
      3  C14      -44.3720  -29.5510    6.2720 C.ar  201  RW5201      0.1191
      4  C12      -46.6650  -29.1320    6.2140 C.ar  201  RW5201      0.1420
      5  C10      -48.7450  -28.8080    5.6030 C.ar  201  RW5201      0.0042
      6  C20      -47.0560  -33.6100   -0.4050 C.ar  201  RW5201     -0.0207
      7  C19      -46.5780  -32.7270    0.5520 C.ar  201  RW5201     -0.0186
      8  C01      -41.1870  -33.1750    0.7330 C.3   201  RW5201     -0.0623
      9  C02      -42.6710  -32.7730    1.1350 C.3   201  RW5201     -0.0404
     10  C03      -42.7410  -32.5140    2.5850 C.3   201  RW5201     -0.0345
     11  C04      -44.1460  -32.0940    2.9840 C.3   201  RW5201      0.0160
     12  C06      -45.2900  -29.7410    2.7120 C.2   201  RW5201      0.2663
     13  C07      -45.4240  -29.5710    4.2190 C.ar  201  RW5201      0.1379
     14  C08      -46.6570  -29.2720    4.8520 C.ar  201  RW5201      0.0491
     15  C09      -47.9990  -29.0640    4.4570 C.ar  201  RW5201     -0.0329
     16  C21      -46.1800  -33.5700   -1.4810 C.ar  201  RW5201      0.1023
     17  C23      -46.2940  -34.3550   -2.7870 C.3   201  RW5201     -0.0064
     18  C24      -43.0760  -31.5700    0.3450 C.3   201  RW5201     -0.0246
     19  N05      -44.6810  -30.9350    2.1590 N.am  201  RW5201     -0.2862
     20  N11      -47.9270  -28.8530    6.6460 N.ar  201  RW5201     -0.3457
     21  N13      -45.5000  -29.2810    6.8940 N.ar  201  RW5201     -0.2179
     22  N15      -44.3290  -29.6900    4.9600 N.ar  201  RW5201     -0.2301
     23  O16      -45.6680  -28.8820    1.9880 O.2   201  RW5201     -0.2683
     24  O22      -45.2210  -32.6910   -1.1750 O.2   201  RW5201     -0.4630
     25 H171      -44.6720  -30.1870    0.1870 H     201  RW5201      0.0581
     26 H141      -43.4580  -29.6670    6.8380 H     201  RW5201      0.1048
     27 H101      -49.8060  -28.6100    5.6380 H     201  RW5201      0.0807
     28 H201      -47.9580  -34.2110   -0.3350 H     201  RW5201      0.0652
     29 H191      -47.0250  -32.5240    1.5140 H     201  RW5201      0.0652
     30 H013      -41.1080  -33.2470   -0.3490 H     201  RW5201      0.0232
     31 H012      -40.9370  -34.1320    1.1800 H     201  RW5201      0.0232
     32 H011      -40.5010  -32.4170    1.0950 H     201  RW5201      0.0232
     33 H021      -43.3570  -33.5770    0.9160 H     201  RW5201      0.0299
     34 H031      -42.0450  -31.7260    2.8400 H     201  RW5201      0.0283
     35 H032      -42.4810  -33.4190    3.1230 H     201  RW5201      0.0283
     36 H042      -44.8030  -32.9390    2.8450 H     201  RW5201      0.0465
     37 H041      -44.1370  -31.8400    4.0380 H     201  RW5201      0.0465
     38 H091      -48.3750  -29.1050    3.4440 H     201  RW5201      0.0640
     39 H231      -46.0510  -33.7250   -3.6520 H     201  RW5201      0.0308
     40 H233      -47.3040  -34.7490   -2.8800 H     201  RW5201      0.0308
     41 H232      -45.6080  -35.1740   -2.7520 H     201  RW5201      0.0308
     42 H241      -42.4050  -30.7550    0.5770 H     201  RW5201      0.0290
     43 H242      -43.0120  -31.8010   -0.7140 H     201  RW5201      0.0290
     44 H111      -48.1920  -28.7060    7.6000 H     201  RW5201      0.1668
@<TRIPOS>BOND
     1    39    17    1
     2    40    17    1
     3    17    41    1
     4    17    16    1
     5    16    24   ar
     6    16     6   ar
     7    24     1   ar
     8    43    18    1
     9     6    28    1
    10     6     7   ar
    11    30     8    1
    12     1     7   ar
    13     1     2    1
    14    25     2    1
    15    18    42    1
    16    18     2    1
    17    18     9    1
    18     7    29    1
    19     2    19    1
    20     8    32    1
    21     8     9    1
    22     8    31    1
    23    33     9    1
    24     9    10    1
    25    23    12    2
    26    19    12   am
    27    19    11    1
    28    10    34    1
    29    10    11    1
    30    10    35    1
    31    12    13    1
    32    36    11    1
    33    11    37    1
    34    38    15    1
    35    13    14   ar
    36    13    22   ar
    37    15    14   ar
    38    15     5   ar
    39    14     4   ar
    40    22     3   ar
    41     5    27    1
    42     5    20   ar
    43     4    20   ar
    44     4    21   ar
    45     3    26    1
    46     3    21   ar
    47    20    44    1
