RKU
  -OEChem-02242320043D

 38 40  0     1  0  0  0  0  0999 V2000
    4.3770    2.5280   -2.2690 C   0  0  0  0  0  0  0  0  0  0  0  0
    3.4630    1.2730   -0.7550 C   0  0  0  0  0  0  0  0  0  0  0  0
    2.6910    0.3720    0.0080 C   0  0  0  0  0  0  0  0  0  0  0  0
    1.5890   -0.3800   -0.6210 C   0  0  0  0  0  0  0  0  0  0  0  0
   -2.4510   -0.9310   -1.3230 C   0  0  0  0  0  0  0  0  0  0  0  0
   -3.5760   -0.1460   -1.1540 C   0  0  0  0  0  0  0  0  0  0  0  0
    4.7690    1.7940    1.2120 C   0  0  0  0  0  0  0  0  0  0  0  0
    4.5040    1.9830   -0.1360 C   0  0  0  0  0  0  0  0  0  0  0  0
    0.6370   -4.1680   -0.0980 C   0  0  0  0  0  0  0  0  0  0  0  0
   -0.5250   -3.2570    0.2020 C   0  0  0  0  0  0  0  0  0  0  0  0
   -0.3050   -1.9060   -0.4830 C   0  0  1  0  0  0  0  0  0  0  0  0
   -1.5280   -1.0450   -0.3010 C   0  0  0  0  0  0  0  0  0  0  0  0
   -1.7270   -0.3700    0.8890 C   0  0  0  0  0  0  0  0  0  0  0  0
   -2.8490    0.4200    1.0570 C   0  0  0  0  0  0  0  0  0  0  0  0
   -3.7780    0.5260    0.0380 C   0  0  0  0  0  0  0  0  0  0  0  0
    4.0120    0.9040    1.9510 C   0  0  0  0  0  0  0  0  0  0  0  0
    2.9770    0.1990    1.3590 C   0  0  0  0  0  0  0  0  0  0  0  0
    4.2780    0.7270    3.2640 F   0  0  0  0  0  0  0  0  0  0  0  0
    0.8550   -1.2390    0.1130 N   0  0  0  0  0  0  0  0  0  0  0  0
    3.4380    1.6530   -2.0490 N   0  0  0  0  0  0  0  0  0  0  0  0
    5.0680    2.7670   -1.1240 N   0  0  0  0  0  0  0  0  0  0  0  0
    0.6180   -5.4420    0.3240 O   0  0  0  0  0  0  0  0  0  0  0  0
    1.3430   -0.2250   -1.8010 O   0  0  0  0  0  0  0  0  0  0  0  0
    1.5860   -3.7510   -0.7190 O   0  0  0  0  0  0  0  0  0  0  0  0
   -5.3170    1.6010    0.2690 Br  0  0  0  0  0  0  0  0  0  0  0  0
    4.5790    2.9930   -3.2230 H   0  0  0  0  0  0  0  0  0  0  0  0
   -2.2960   -1.4590   -2.2520 H   0  0  0  0  0  0  0  0  0  0  0  0
   -4.2980   -0.0560   -1.9530 H   0  0  0  0  0  0  0  0  0  0  0  0
    5.5710    2.3420    1.6860 H   0  0  0  0  0  0  0  0  0  0  0  0
   -1.4450   -3.7070   -0.1690 H   0  0  0  0  0  0  0  0  0  0  0  0
   -0.6020   -3.1090    1.2800 H   0  0  0  0  0  0  0  0  0  0  0  0
   -0.1260   -2.0630   -1.5470 H   0  0  0  0  0  0  0  0  0  0  0  0
   -1.0050   -0.4600    1.6880 H   0  0  0  0  0  0  0  0  0  0  0  0
   -3.0040    0.9470    1.9870 H   0  0  0  0  0  0  0  0  0  0  0  0
    2.3900   -0.4890    1.9490 H   0  0  0  0  0  0  0  0  0  0  0  0
    1.0950   -1.4160    1.0370 H   0  0  0  0  0  0  0  0  0  0  0  0
    5.8180    3.3750   -1.0200 H   0  0  0  0  0  0  0  0  0  0  0  0
    1.3860   -5.9870    0.1070 H   0  0  0  0  0  0  0  0  0  0  0  0
 15 25  1  0  0  0  0
  6 15  2  0  0  0  0
  5  6  1  0  0  0  0
 14 15  1  0  0  0  0
  5 12  2  0  0  0  0
 13 14  2  0  0  0  0
 12 13  1  0  0  0  0
 11 12  1  0  0  0  0
  4 23  2  0  0  0  0
 10 11  1  0  0  0  0
 11 19  1  0  0  0  0
  4 19  1  0  0  0  0
  3  4  1  0  0  0  0
  9 10  1  0  0  0  0
  3 17  2  0  0  0  0
 16 17  1  0  0  0  0
  2  3  1  0  0  0  0
 16 18  1  0  0  0  0
  9 24  2  0  0  0  0
  9 22  1  0  0  0  0
  7 16  2  0  0  0  0
  2 20  1  0  0  0  0
  2  8  2  0  0  0  0
  7  8  1  0  0  0  0
  1 20  2  0  0  0  0
  8 21  1  0  0  0  0
  1 21  1  0  0  0  0
  1 26  1  0  0  0  0
  5 27  1  0  0  0  0
  6 28  1  0  0  0  0
  7 29  1  0  0  0  0
 10 30  1  0  0  0  0
 10 31  1  0  0  0  0
 11 32  1  0  0  0  0
 13 33  1  0  0  0  0
 14 34  1  0  0  0  0
 17 35  1  0  0  0  0
 19 36  1  0  0  0  0
 21 37  1  0  0  0  0
 22 38  1  0  0  0  0
M  END
> <OPENEYE_ISO_SMILES>
c1cc(ccc1[C@H](CC(=O)O)NC(=O)c2cc(cc3c2nc[nH]3)F)Br

> <OPENEYE_INCHI>
InChI=1S/C17H13BrFN3O3/c18-10-3-1-9(2-4-10)13(7-15(23)24)22-17(25)12-5-11(19)6-14-16(12)21-8-20-14/h1-6,8,13H,7H2,(H,20,21)(H,22,25)(H,23,24)/t13-/m0/s1

> <OPENEYE_INCHIKEY>
QCPOODMPJHYVRY-ZDUSSCGKSA-N

> <FORMULA>
C17H13BrFN3O3

$$$$
