NOA
  -OEChem-02242320033D

 25 26  0     0  0  0  0  0  0999 V2000
    0.3400   -0.0000    3.5640 C   0  0  0  0  0  0  0  0  0  0  0  0
   -0.4630   -0.0000    2.2900 C   0  0  0  0  0  0  0  0  0  0  0  0
   -0.3560   -0.0000    0.0540 C   0  0  0  0  0  0  0  0  0  0  0  0
   -1.7180   -0.0000    0.1660 C   0  0  0  0  0  0  0  0  0  0  0  0
   -2.5290   -0.0000   -0.9640 C   0  0  0  0  0  0  0  0  0  0  0  0
   -1.9910   -0.0000   -2.2140 C   0  0  0  0  0  0  0  0  0  0  0  0
   -0.5940   -0.0000   -2.3730 C   0  0  0  0  0  0  0  0  0  0  0  0
   -0.0050   -0.0000   -3.6490 C   0  0  0  0  0  0  0  0  0  0  0  0
    1.3500   -0.0000   -3.7640 C   0  0  0  0  0  0  0  0  0  0  0  0
    2.1660   -0.0000   -2.6340 C   0  0  0  0  0  0  0  0  0  0  0  0
    1.6300   -0.0010   -1.3820 C   0  0  0  0  0  0  0  0  0  0  0  0
    0.2350    0.0050   -1.2240 C   0  0  0  0  0  0  0  0  0  0  0  0
    1.5480   -0.0000    3.5160 O   0  0  0  0  0  0  0  0  0  0  0  0
   -0.2830   -0.0000    4.7520 O   0  0  0  0  0  0  0  0  0  0  0  0
    0.4210   -0.0000    1.1670 O   0  0  0  0  0  0  0  0  0  0  0  0
   -1.0920   -0.8900    2.2570 H   0  0  0  0  0  0  0  0  0  0  0  0
   -1.0920    0.8890    2.2570 H   0  0  0  0  0  0  0  0  0  0  0  0
   -2.1720   -0.0000    1.1470 H   0  0  0  0  0  0  0  0  0  0  0  0
   -3.6030   -0.0000   -0.8480 H   0  0  0  0  0  0  0  0  0  0  0  0
   -2.6340   -0.0000   -3.0820 H   0  0  0  0  0  0  0  0  0  0  0  0
   -0.6250   -0.0010   -4.5330 H   0  0  0  0  0  0  0  0  0  0  0  0
    1.8010   -0.0000   -4.7450 H   0  0  0  0  0  0  0  0  0  0  0  0
    3.2400   -0.0000   -2.7520 H   0  0  0  0  0  0  0  0  0  0  0  0
    2.2740   -0.0010   -0.5160 H   0  0  0  0  0  0  0  0  0  0  0  0
    0.2320   -0.0000    5.5700 H   0  0  0  0  0  0  0  0  0  0  0  0
  1  2  1  0  0  0  0
  1 13  2  0  0  0  0
  1 14  1  0  0  0  0
  2 15  1  0  0  0  0
  2 16  1  0  0  0  0
  2 17  1  0  0  0  0
  3  4  2  0  0  0  0
  3 12  1  0  0  0  0
  3 15  1  0  0  0  0
  4  5  1  0  0  0  0
  4 18  1  0  0  0  0
  5  6  2  0  0  0  0
  5 19  1  0  0  0  0
  6  7  1  0  0  0  0
  6 20  1  0  0  0  0
  7  8  2  0  0  0  0
  7 12  1  0  0  0  0
  8  9  1  0  0  0  0
  8 21  1  0  0  0  0
  9 10  2  0  0  0  0
  9 22  1  0  0  0  0
 10 11  1  0  0  0  0
 10 23  1  0  0  0  0
 11 12  2  0  0  0  0
 11 24  1  0  0  0  0
 14 25  1  0  0  0  0
M  END
> <OPENEYE_ISO_SMILES>
c1ccc2c(c1)cccc2OCC(=O)O

> <OPENEYE_INCHI>
InChI=1S/C12H10O3/c13-12(14)8-15-11-7-3-5-9-4-1-2-6-10(9)11/h1-7H,8H2,(H,13,14)

> <OPENEYE_INCHIKEY>
GHRYSOFWKRRLMI-UHFFFAOYSA-N

> <FORMULA>
C12H10O3

$$$$
