ZL7
  -OEChem-02242320043D

 67 69  0     1  0  0  0  0  0999 V2000
   -2.1240    6.4910   -0.5780 C   0  0  0  0  0  0  0  0  0  0  0  0
    5.2130   -2.1710   -1.9410 C   0  0  0  0  0  0  0  0  0  0  0  0
   -4.5120   -1.7420    0.1540 C   0  0  0  0  0  0  0  0  0  0  0  0
   -5.0350   -1.1890   -2.1610 C   0  0  0  0  0  0  0  0  0  0  0  0
   -4.2240   -0.9690   -3.4400 C   0  0  0  0  0  0  0  0  0  0  0  0
    2.3530   -0.3810    0.6810 C   0  0  1  0  0  0  0  0  0  0  0  0
    3.3620   -1.0120   -0.2440 C   0  0  0  0  0  0  0  0  0  0  0  0
    4.6220   -0.9650   -2.2790 C   0  0  0  0  0  0  0  0  0  0  0  0
    4.8760   -2.7960   -0.7530 C   0  0  0  0  0  0  0  0  0  0  0  0
    3.0300    0.7210    1.4980 C   0  0  0  0  0  0  0  0  0  0  0  0
   -3.9320   -2.6650    1.1950 C   0  0  1  0  0  0  0  0  0  0  0  0
   -5.4990   -1.8130   -3.4780 C   0  0  0  0  0  0  0  0  0  0  0  0
   -0.3430   -3.9310    1.7670 C   0  0  0  0  0  0  0  0  0  0  0  0
   -1.8320   -3.7170    2.0470 C   0  0  0  0  0  0  0  0  0  0  0  0
   -2.4210   -2.7800    0.9900 C   0  0  2  0  0  0  0  0  0  0  0  0
   -1.8080   -1.4550    1.1170 N   0  0  0  0  0  0  0  0  0  0  0  0
   -0.6350   -1.1940    0.5080 C   0  0  0  0  0  0  0  0  0  0  0  0
   -0.0850   -2.0560   -0.1440 O   0  0  0  0  0  0  0  0  0  0  0  0
   -0.0050    0.1690    0.6380 C   0  0  2  0  0  0  0  0  0  0  0  0
   -0.9560    1.2260    0.0750 C   0  0  0  0  0  0  0  0  0  0  0  0
   -0.2180    2.8710    0.2740 S   0  0  0  0  0  0  0  0  0  0  0  0
   -0.0240    3.1160    1.6600 O   0  0  0  0  0  0  0  0  0  0  0  0
    0.8880    2.9810   -0.6120 O   0  0  0  0  0  0  0  0  0  0  0  0
   -1.5460    3.9530   -0.3230 C   0  0  0  0  0  0  0  0  0  0  0  0
   -1.0970    5.4120   -0.2290 C   0  0  0  0  0  0  0  0  0  0  0  0
   -0.9680    6.1980   -1.5370 C   0  0  0  0  0  0  0  0  0  0  0  0
    1.2590    0.1980   -0.1100 N   0  0  0  0  0  0  0  0  0  0  0  0
    3.6980   -0.3870   -1.4300 C   0  0  0  0  0  0  0  0  0  0  0  0
    6.1130   -2.7390   -2.7730 F   0  0  0  0  0  0  0  0  0  0  0  0
    3.9500   -2.2160    0.0940 C   0  0  0  0  0  0  0  0  0  0  0  0
    4.1180    0.1840    2.1940 F   0  0  0  0  0  0  0  0  0  0  0  0
    3.4780    1.7300    0.6390 F   0  0  0  0  0  0  0  0  0  0  0  0
    2.1120    1.2570    2.4080 F   0  0  0  0  0  0  0  0  0  0  0  0
   -4.1980   -2.1400    2.4970 O   0  0  0  0  0  0  0  0  0  0  0  0
   -5.0150   -0.6900    0.4880 O   0  0  0  0  0  0  0  0  0  0  0  0
   -4.4710   -2.0860   -1.1490 N   0  0  0  0  0  0  0  0  0  0  0  0
   -3.1200    6.1620   -0.8740 H   0  0  0  0  0  0  0  0  0  0  0  0
   -2.0860    7.4230   -0.0140 H   0  0  0  0  0  0  0  0  0  0  0  0
   -5.6060   -0.3440   -1.7750 H   0  0  0  0  0  0  0  0  0  0  0  0
   -4.2610    0.0210   -3.8950 H   0  0  0  0  0  0  0  0  0  0  0  0
   -3.2710   -1.4910   -3.5280 H   0  0  0  0  0  0  0  0  0  0  0  0
    1.9530   -1.1390    1.3540 H   0  0  0  0  0  0  0  0  0  0  0  0
    4.8850   -0.4760   -3.2060 H   0  0  0  0  0  0  0  0  0  0  0  0
    5.3350   -3.7370   -0.4880 H   0  0  0  0  0  0  0  0  0  0  0  0
   -4.3880   -3.6510    1.1010 H   0  0  0  0  0  0  0  0  0  0  0  0
   -5.3860   -2.8910   -3.5920 H   0  0  0  0  0  0  0  0  0  0  0  0
   -6.3760   -1.3790   -3.9590 H   0  0  0  0  0  0  0  0  0  0  0  0
    0.1740   -2.9720    1.8030 H   0  0  0  0  0  0  0  0  0  0  0  0
    0.0760   -4.5980    2.5200 H   0  0  0  0  0  0  0  0  0  0  0  0
   -0.2190   -4.3740    0.7790 H   0  0  0  0  0  0  0  0  0  0  0  0
   -2.3500   -4.6750    2.0110 H   0  0  0  0  0  0  0  0  0  0  0  0
   -1.9560   -3.2730    3.0350 H   0  0  0  0  0  0  0  0  0  0  0  0
   -2.2180   -3.1800   -0.0040 H   0  0  0  0  0  0  0  0  0  0  0  0
   -2.2480   -0.7660    1.6380 H   0  0  0  0  0  0  0  0  0  0  0  0
    0.1910    0.3800    1.6900 H   0  0  0  0  0  0  0  0  0  0  0  0
   -1.1300    1.0310   -0.9830 H   0  0  0  0  0  0  0  0  0  0  0  0
   -1.9040    1.1860    0.6120 H   0  0  0  0  0  0  0  0  0  0  0  0
   -1.7750    3.7090   -1.3610 H   0  0  0  0  0  0  0  0  0  0  0  0
   -2.4370    3.8060    0.2890 H   0  0  0  0  0  0  0  0  0  0  0  0
   -0.3830    5.6340    0.5640 H   0  0  0  0  0  0  0  0  0  0  0  0
   -1.2040    5.6750   -2.4640 H   0  0  0  0  0  0  0  0  0  0  0  0
   -0.1690    6.9370   -1.6030 H   0  0  0  0  0  0  0  0  0  0  0  0
    1.1650   -0.2740   -0.9970 H   0  0  0  0  0  0  0  0  0  0  0  0
    3.2370    0.5540   -1.6940 H   0  0  0  0  0  0  0  0  0  0  0  0
    3.6870   -2.7040    1.0210 H   0  0  0  0  0  0  0  0  0  0  0  0
   -3.8210   -1.2630    2.6520 H   0  0  0  0  0  0  0  0  0  0  0  0
   -4.0690   -2.9270   -1.4160 H   0  0  0  0  0  0  0  0  0  0  0  0
  3 35  2  0  0  0  0
 13 14  1  0  0  0  0
 14 15  1  0  0  0  0
  3 11  1  0  0  0  0
 11 15  1  0  0  0  0
 11 34  1  0  0  0  0
  3 36  1  0  0  0  0
 15 16  1  0  0  0  0
  4 36  1  0  0  0  0
  4 12  1  0  0  0  0
  4  5  1  0  0  0  0
  5 12  1  0  0  0  0
 16 17  1  0  0  0  0
 17 18  2  0  0  0  0
 17 19  1  0  0  0  0
 25 26  1  0  0  0  0
  1 26  1  0  0  0  0
 24 25  1  0  0  0  0
  1 25  1  0  0  0  0
 21 24  1  0  0  0  0
 19 27  1  0  0  0  0
 19 20  1  0  0  0  0
  8 28  2  0  0  0  0
  2  8  1  0  0  0  0
  6 27  1  0  0  0  0
  7 28  1  0  0  0  0
 20 21  1  0  0  0  0
 21 22  2  0  0  0  0
 21 23  2  0  0  0  0
  2 29  1  0  0  0  0
  2  9  2  0  0  0  0
 10 31  1  0  0  0  0
 10 33  1  0  0  0  0
  6  7  1  0  0  0  0
  7 30  2  0  0  0  0
  6 10  1  0  0  0  0
 10 32  1  0  0  0  0
  9 30  1  0  0  0  0
  1 37  1  0  0  0  0
  1 38  1  0  0  0  0
  4 39  1  0  0  0  0
  5 40  1  0  0  0  0
  5 41  1  0  0  0  0
  6 42  1  0  0  0  0
  8 43  1  0  0  0  0
  9 44  1  0  0  0  0
 11 45  1  0  0  0  0
 12 46  1  0  0  0  0
 12 47  1  0  0  0  0
 13 48  1  0  0  0  0
 13 49  1  0  0  0  0
 13 50  1  0  0  0  0
 14 51  1  0  0  0  0
 14 52  1  0  0  0  0
 15 53  1  0  0  0  0
 16 54  1  0  0  0  0
 19 55  1  0  0  0  0
 20 56  1  0  0  0  0
 20 57  1  0  0  0  0
 24 58  1  0  0  0  0
 24 59  1  0  0  0  0
 25 60  1  0  0  0  0
 26 61  1  0  0  0  0
 26 62  1  0  0  0  0
 27 63  1  0  0  0  0
 28 64  1  0  0  0  0
 30 65  1  0  0  0  0
 34 66  1  0  0  0  0
 36 67  1  0  0  0  0
M  END
> <OPENEYE_ISO_SMILES>
CC[C@@H]([C@H](C(=O)NC1CC1)O)NC(=O)[C@H](CS(=O)(=O)CC2CC2)N[C@@H](c3ccc(cc3)F)C(F)(F)F

> <OPENEYE_INCHI>
InChI=1S/C23H31F4N3O5S/c1-2-17(19(31)22(33)28-16-9-10-16)30-21(32)18(12-36(34,35)11-13-3-4-13)29-20(23(25,26)27)14-5-7-15(24)8-6-14/h5-8,13,16-20,29,31H,2-4,9-12H2,1H3,(H,28,33)(H,30,32)/t17-,18-,19+,20-/m0/s1

> <OPENEYE_INCHIKEY>
DXQKITXDEYCCEL-HAGHYFMRSA-N

> <FORMULA>
C23H31F4N3O5S

$$$$
