W2M
  -OEChem-02242320043D

 29 31  0     1  0  0  0  0  0999 V2000
   -2.4960    0.3620   -0.9430 N   0  0  0  0  0  0  0  0  0  0  0  0
    3.4930    1.1620    0.0800 C   0  0  0  0  0  0  0  0  0  0  0  0
    3.7190   -0.1250    0.5330 C   0  0  0  0  0  0  0  0  0  0  0  0
    2.7090   -1.0650    0.4820 C   0  0  0  0  0  0  0  0  0  0  0  0
   -0.1130    0.9580   -1.0220 C   0  0  0  0  0  0  0  0  0  0  0  0
   -1.1980    0.1870   -0.2710 C   0  0  2  0  0  0  0  0  0  0  0  0
   -2.8670    0.7040    1.4030 C   0  0  0  0  0  0  0  0  0  0  0  0
   -1.7260   -2.1070   -0.2540 O   0  0  0  0  0  0  0  0  0  0  0  0
   -0.8460   -1.2730   -0.2000 C   0  0  0  0  0  0  0  0  0  0  0  0
   -1.3360    0.7540    1.1560 C   0  0  0  0  0  0  0  0  0  0  0  0
   -3.4220    1.0330   -0.0050 C   0  0  0  0  0  0  0  0  0  0  0  0
    1.2390    0.5780   -0.4750 C   0  0  0  0  0  0  0  0  0  0  0  0
    2.2540    1.5130   -0.4240 C   0  0  0  0  0  0  0  0  0  0  0  0
    1.4630   -0.7160   -0.0230 C   0  0  0  0  0  0  0  0  0  0  0  0
    0.4360   -1.6640   -0.0760 N   0  0  0  0  0  0  0  0  0  0  0  0
   -2.8690   -0.5250   -1.2460 H   0  0  0  0  0  0  0  0  0  0  0  0
    4.2860    1.8940    0.1200 H   0  0  0  0  0  0  0  0  0  0  0  0
    4.6880   -0.3960    0.9260 H   0  0  0  0  0  0  0  0  0  0  0  0
    2.8860   -2.0700    0.8350 H   0  0  0  0  0  0  0  0  0  0  0  0
   -0.1590    0.7110   -2.0820 H   0  0  0  0  0  0  0  0  0  0  0  0
   -0.2710    2.0280   -0.8910 H   0  0  0  0  0  0  0  0  0  0  0  0
   -3.1780   -0.2900    1.7240 H   0  0  0  0  0  0  0  0  0  0  0  0
   -3.1700    1.4600    2.1280 H   0  0  0  0  0  0  0  0  0  0  0  0
   -0.8090    0.1250    1.8730 H   0  0  0  0  0  0  0  0  0  0  0  0
   -0.9710    1.7800    1.2000 H   0  0  0  0  0  0  0  0  0  0  0  0
   -3.4180    2.1100   -0.1730 H   0  0  0  0  0  0  0  0  0  0  0  0
   -4.4310    0.6340   -0.1170 H   0  0  0  0  0  0  0  0  0  0  0  0
    2.0800    2.5180   -0.7770 H   0  0  0  0  0  0  0  0  0  0  0  0
    0.6500   -2.6090   -0.0220 H   0  0  0  0  0  0  0  0  0  0  0  0
  7 10  1  0  0  0  0
  7 11  1  0  0  0  0
  6 10  1  0  0  0  0
  1 11  1  0  0  0  0
  2 13  2  0  0  0  0
  2  3  1  0  0  0  0
 12 13  1  0  0  0  0
  3  4  2  0  0  0  0
  1  6  1  0  0  0  0
  5  6  1  0  0  0  0
  6  9  1  0  0  0  0
  5 12  1  0  0  0  0
 12 14  2  0  0  0  0
  4 14  1  0  0  0  0
 14 15  1  0  0  0  0
  9 15  1  0  0  0  0
  8  9  2  0  0  0  0
  1 16  1  0  0  0  0
  2 17  1  0  0  0  0
  3 18  1  0  0  0  0
  4 19  1  0  0  0  0
  5 20  1  0  0  0  0
  5 21  1  0  0  0  0
  7 22  1  0  0  0  0
  7 23  1  0  0  0  0
 10 24  1  0  0  0  0
 10 25  1  0  0  0  0
 11 26  1  0  0  0  0
 11 27  1  0  0  0  0
 13 28  1  0  0  0  0
 15 29  1  0  0  0  0
M  END
> <OPENEYE_ISO_SMILES>
c1ccc2c(c1)C[C@]3(CCCN3)C(=O)N2

> <OPENEYE_INCHI>
InChI=1S/C12H14N2O/c15-11-12(6-3-7-13-12)8-9-4-1-2-5-10(9)14-11/h1-2,4-5,13H,3,6-8H2,(H,14,15)/t12-/m1/s1

> <OPENEYE_INCHIKEY>
ABOZUPQQWCLVDB-GFCCVEGCSA-N

> <FORMULA>
C12H14N2O

$$$$
