@<TRIPOS>MOLECULE
/home/pku/3cl/gett_pdb/5RSE/5RSE_mol2/ligand/5RSE_W5P.pdb
 29 31 0 0 0
SMALL
GASTEIGER

@<TRIPOS>ATOM
      1  C10      -44.3220  -29.4910    6.3300 C.2   201  W5P201      0.1048
      2  C15      -47.7370  -28.9930    4.3460 C.ar  201  W5P201     -0.0355
      3  C02      -45.9380  -30.9040    0.9540 C.3   201  W5P201      0.1137
      4  C03      -45.0250  -32.0200    0.8620 C.3   201  W5P201     -0.0194
      5  C04      -44.1090  -32.1500    1.9500 C.3   201  W5P201     -0.0375
      6  C05      -43.7820  -30.7820    2.4570 C.3   201  W5P201      0.0016
      7  C07      -45.6530  -29.6110    1.7140 C.3   201  W5P201      0.0326
      8  C08      -45.2380  -29.6210    4.2780 C.3   201  W5P201      0.1876
      9  C12      -46.4790  -29.0520    6.1510 C.ar  201  W5P201      0.1286
     10  C14      -48.4610  -28.6340    5.3950 C.ar  201  W5P201      0.0038
     11  C16      -46.4570  -29.2310    4.8190 C.ar  201  W5P201      0.0397
     12  F01      -46.9600  -31.2390    1.6510 F     201  W5P201     -0.2442
     13  N06      -44.9760  -29.9860    2.9370 N.3   201  W5P201     -0.2688
     14  N09      -44.2020  -29.6740    5.0880 N.2   201  W5P201     -0.2432
     15  N11      -45.3940  -29.1340    6.8760 N.pl3 201  W5P201     -0.1859
     16  N13      -47.6970  -28.7090    6.4800 N.ar  201  W5P201     -0.3479
     17 H101      -43.5640  -29.5760    6.8620 H     201  W5P201      0.1015
     18 H151      -48.0380  -29.1060    3.4730 H     201  W5P201      0.0637
     19 H021      -46.2320  -30.6750    0.0590 H     201  W5P201      0.0664
     20 H032      -44.5120  -31.9250    0.0440 H     201  W5P201      0.0294
     21 H031      -45.5480  -32.8350    0.8070 H     201  W5P201      0.0294
     22 H042      -43.2990  -32.5860    1.6430 H     201  W5P201      0.0278
     23 H041      -44.5180  -32.6710    2.6590 H     201  W5P201      0.0278
     24 H051      -43.3490  -30.2880    1.7430 H     201  W5P201      0.0427
     25 H052      -43.1550  -30.8760    3.1900 H     201  W5P201      0.0427
     26 H072      -46.4870  -29.1610    1.9200 H     201  W5P201      0.0456
     27 H071      -45.0840  -29.0330    1.1820 H     201  W5P201      0.0456
     28 H141      -49.3730  -28.4540    5.3870 H     201  W5P201      0.0807
     29 H131      -47.9410  -28.4660    7.2680 H     201  W5P201      0.1666
@<TRIPOS>BOND
     1    20     4    1
     2    19     3    1
     3    21     4    1
     4     4     3    1
     5     4     5    1
     6     3    12    1
     7     3     7    1
     8    27     7    1
     9    22     5    1
    10     7    26    1
    11     7    13    1
    12    24     6    1
    13     5     6    1
    14     5    23    1
    15     6    13    1
    16     6    25    1
    17    13     8    1
    18    18     2    1
    19     8    11    1
    20     8    14    1
    21     2    11   ar
    22     2    10   ar
    23    11     9   ar
    24    14     1    2
    25    28    10    1
    26    10    16   ar
    27     9    16   ar
    28     9    15    1
    29     1    17    1
    30     1    15    1
    31    16    29    1
