860
  -OEChem-02242320013D

 34 36  0     0  0  0  0  0  0999 V2000
   -2.5520    1.0590   -0.1060 C   0  0  0  0  0  0  0  0  0  0  0  0
    4.3780   -0.7570    0.2900 C   0  0  0  0  0  0  0  0  0  0  0  0
    3.9850   -2.0520    0.6630 C   0  0  0  0  0  0  0  0  0  0  0  0
    1.7880   -1.6210    0.0690 C   0  0  0  0  0  0  0  0  0  0  0  0
    3.7710    1.4260   -0.6080 C   0  0  0  0  0  0  0  0  0  0  0  0
    5.0710    1.8150   -0.4820 C   0  0  0  0  0  0  0  0  0  0  0  0
    6.0350    0.9440    0.0220 C   0  0  0  0  0  0  0  0  0  0  0  0
    5.7080   -0.3210    0.4050 C   0  0  0  0  0  0  0  0  0  0  0  0
   -4.0460    1.3850    1.7370 C   0  0  0  0  0  0  0  0  0  0  0  0
   -1.2530    1.3700   -0.8040 C   0  0  0  0  0  0  0  0  0  0  0  0
   -2.8540    1.6700    1.0970 C   0  0  0  0  0  0  0  0  0  0  0  0
   -0.1900    0.4090   -0.3380 C   0  0  0  0  0  0  0  0  0  0  0  0
   -3.4440    0.1680   -0.6720 C   0  0  0  0  0  0  0  0  0  0  0  0
   -4.6390   -0.1130   -0.0340 C   0  0  0  0  0  0  0  0  0  0  0  0
   -4.9410    0.4980    1.1700 C   0  0  0  0  0  0  0  0  0  0  0  0
    2.0690   -0.3310   -0.3310 C   0  0  0  0  0  0  0  0  0  0  0  0
    3.3990    0.1310   -0.2240 C   0  0  0  0  0  0  0  0  0  0  0  0
    2.7320   -2.4220    0.5400 N   0  0  0  0  0  0  0  0  0  0  0  0
    1.0610    0.4980   -0.8300 N   0  0  0  0  0  0  0  0  0  0  0  0
   -0.4610   -0.4440    0.4810 O   0  0  0  0  0  0  0  0  0  0  0  0
   -5.7600   -1.2330   -0.7440 Cl  0  0  0  0  0  0  0  0  0  0  0  0
    4.7150   -2.7460    1.0530 H   0  0  0  0  0  0  0  0  0  0  0  0
    0.7750   -1.9870   -0.0070 H   0  0  0  0  0  0  0  0  0  0  0  0
    3.0340    2.1110   -1.0000 H   0  0  0  0  0  0  0  0  0  0  0  0
    5.3590    2.8130   -0.7780 H   0  0  0  0  0  0  0  0  0  0  0  0
    7.0580    1.2780    0.1110 H   0  0  0  0  0  0  0  0  0  0  0  0
    6.4660   -0.9850    0.7950 H   0  0  0  0  0  0  0  0  0  0  0  0
   -4.2810    1.8620    2.6770 H   0  0  0  0  0  0  0  0  0  0  0  0
   -1.3860    1.2700   -1.8810 H   0  0  0  0  0  0  0  0  0  0  0  0
   -0.9490    2.3900   -0.5680 H   0  0  0  0  0  0  0  0  0  0  0  0
   -2.1580    2.3700    1.5360 H   0  0  0  0  0  0  0  0  0  0  0  0
   -3.2090   -0.3100   -1.6120 H   0  0  0  0  0  0  0  0  0  0  0  0
   -5.8730    0.2790    1.6680 H   0  0  0  0  0  0  0  0  0  0  0  0
    1.2630    1.1370   -1.5310 H   0  0  0  0  0  0  0  0  0  0  0  0
  3 18  1  0  0  0  0
  4 18  2  0  0  0  0
  2  3  2  0  0  0  0
  4 16  1  0  0  0  0
  2  8  1  0  0  0  0
  2 17  1  0  0  0  0
  7  8  2  0  0  0  0
 16 17  2  0  0  0  0
 16 19  1  0  0  0  0
  5 17  1  0  0  0  0
  6  7  1  0  0  0  0
 12 19  1  0  0  0  0
 12 20  2  0  0  0  0
 10 12  1  0  0  0  0
 14 21  1  0  0  0  0
  5  6  2  0  0  0  0
 13 14  2  0  0  0  0
  1 13  1  0  0  0  0
 14 15  1  0  0  0  0
  1 10  1  0  0  0  0
  1 11  2  0  0  0  0
  9 15  2  0  0  0  0
  9 11  1  0  0  0  0
  3 22  1  0  0  0  0
  4 23  1  0  0  0  0
  5 24  1  0  0  0  0
  6 25  1  0  0  0  0
  7 26  1  0  0  0  0
  8 27  1  0  0  0  0
  9 28  1  0  0  0  0
 10 29  1  0  0  0  0
 10 30  1  0  0  0  0
 11 31  1  0  0  0  0
 13 32  1  0  0  0  0
 15 33  1  0  0  0  0
 19 34  1  0  0  0  0
M  END
> <OPENEYE_ISO_SMILES>
c1ccc2c(c1)cncc2NC(=O)Cc3cccc(c3)Cl

> <OPENEYE_INCHI>
InChI=1S/C17H13ClN2O/c18-14-6-3-4-12(8-14)9-17(21)20-16-11-19-10-13-5-1-2-7-15(13)16/h1-8,10-11H,9H2,(H,20,21)

> <OPENEYE_INCHIKEY>
VFGOVUIYBMUVAD-UHFFFAOYSA-N

> <FORMULA>
C17H13ClN2O

$$$$
