U0V
  -OEChem-02242320043D

 31 32  0     0  0  0  0  0  0999 V2000
    3.4590   -0.5340   -0.0010 C   0  0  0  0  0  0  0  0  0  0  0  0
    5.4120    0.2160   -1.1520 C   0  0  0  0  0  0  0  0  0  0  0  0
    5.4140    0.2080    1.1510 C   0  0  0  0  0  0  0  0  0  0  0  0
   -3.8200    0.7820    0.0020 C   0  0  0  0  0  0  0  0  0  0  0  0
   -5.1090    0.2820   -0.0040 C   0  0  0  0  0  0  0  0  0  0  0  0
   -5.3230   -1.0840   -0.0050 C   0  0  0  0  0  0  0  0  0  0  0  0
   -4.2510   -1.9590   -0.0010 C   0  0  0  0  0  0  0  0  0  0  0  0
   -2.9600   -1.4760    0.0040 C   0  0  0  0  0  0  0  0  0  0  0  0
   -2.7330   -0.0980    0.0010 C   0  0  0  0  0  0  0  0  0  0  0  0
   -1.3530    0.4270    0.0010 C   0  0  0  0  0  0  0  0  0  0  0  0
    1.0610    0.0970    0.0000 C   0  0  0  0  0  0  0  0  0  0  0  0
    2.0510   -1.0700   -0.0020 C   0  0  0  0  0  0  0  0  0  0  0  0
    4.1200   -0.2750   -1.1920 C   0  0  0  0  0  0  0  0  0  0  0  0
    4.1230   -0.2830    1.1900 C   0  0  0  0  0  0  0  0  0  0  0  0
   -3.6110    2.1170    0.0040 F   0  0  0  0  0  0  0  0  0  0  0  0
   -0.3080   -0.4240   -0.0000 N   0  0  0  0  0  0  0  0  0  0  0  0
    6.0140    0.4370   -0.0000 N   0  0  0  0  0  0  0  0  0  0  0  0
   -1.1590    1.6270    0.0030 O   0  0  0  0  0  0  0  0  0  0  0  0
    5.9330    0.4210   -2.0760 H   0  0  0  0  0  0  0  0  0  0  0  0
    5.9400    0.4010    2.0750 H   0  0  0  0  0  0  0  0  0  0  0  0
   -5.9500    0.9590   -0.0070 H   0  0  0  0  0  0  0  0  0  0  0  0
   -6.3320   -1.4700   -0.0100 H   0  0  0  0  0  0  0  0  0  0  0  0
   -4.4260   -3.0250   -0.0020 H   0  0  0  0  0  0  0  0  0  0  0  0
   -2.1250   -2.1610    0.0080 H   0  0  0  0  0  0  0  0  0  0  0  0
    1.2180    0.7050    0.8910 H   0  0  0  0  0  0  0  0  0  0  0  0
    1.2180    0.7080   -0.8890 H   0  0  0  0  0  0  0  0  0  0  0  0
    1.8940   -1.6780   -0.8930 H   0  0  0  0  0  0  0  0  0  0  0  0
    1.8940   -1.6810    0.8870 H   0  0  0  0  0  0  0  0  0  0  0  0
    3.6320   -0.4540   -2.1390 H   0  0  0  0  0  0  0  0  0  0  0  0
    3.6370   -0.4700    2.1360 H   0  0  0  0  0  0  0  0  0  0  0  0
   -0.4630   -1.3820   -0.0020 H   0  0  0  0  0  0  0  0  0  0  0  0
  4 15  1  0  0  0  0
  4  5  2  0  0  0  0
  5  6  1  0  0  0  0
  6  7  2  0  0  0  0
  7  8  1  0  0  0  0
  8  9  2  0  0  0  0
  9 10  1  0  0  0  0
 10 18  2  0  0  0  0
 10 16  1  0  0  0  0
 11 16  1  0  0  0  0
 11 12  1  0  0  0  0
  1 12  1  0  0  0  0
  1 13  2  0  0  0  0
  2 13  1  0  0  0  0
  2 17  2  0  0  0  0
  3 17  1  0  0  0  0
  3 14  2  0  0  0  0
  4  9  1  0  0  0  0
  1 14  1  0  0  0  0
  2 19  1  0  0  0  0
  3 20  1  0  0  0  0
  5 21  1  0  0  0  0
  6 22  1  0  0  0  0
  7 23  1  0  0  0  0
  8 24  1  0  0  0  0
 11 25  1  0  0  0  0
 11 26  1  0  0  0  0
 12 27  1  0  0  0  0
 12 28  1  0  0  0  0
 13 29  1  0  0  0  0
 14 30  1  0  0  0  0
 16 31  1  0  0  0  0
M  END
> <OPENEYE_ISO_SMILES>
c1ccc(c(c1)C(=O)NCCc2ccncc2)F

> <OPENEYE_INCHI>
InChI=1S/C14H13FN2O/c15-13-4-2-1-3-12(13)14(18)17-10-7-11-5-8-16-9-6-11/h1-6,8-9H,7,10H2,(H,17,18)

> <OPENEYE_INCHIKEY>
HQJMILNSKHZGJL-UHFFFAOYSA-N

> <FORMULA>
C14H13FN2O

$$$$
