CLW
  -OEChem-02242320023D

 15 16  0     0  0  0  0  0  0999 V2000
    1.3640    0.0000   -1.4720 C   0  0  0  0  0  0  0  0  0  0  0  0
    1.7780    0.0000   -0.1540 C   0  0  0  0  0  0  0  0  0  0  0  0
    0.8390    0.0000    0.8650 C   0  0  0  0  0  0  0  0  0  0  0  0
   -0.5200   -0.0000    0.5540 C   0  0  0  0  0  0  0  0  0  0  0  0
   -0.9280    0.0040   -0.7700 C   0  0  0  0  0  0  0  0  0  0  0  0
    0.0140   -0.0000   -1.7800 C   0  0  0  0  0  0  0  0  0  0  0  0
   -0.4940   -0.0010   -3.4400 Cl  0  0  0  0  0  0  0  0  0  0  0  0
    0.9420   -0.0000    2.2170 O   0  0  0  0  0  0  0  0  0  0  0  0
   -0.2880   -0.0000    2.7530 C   0  0  0  0  0  0  0  0  0  0  0  0
   -1.2070   -0.0000    1.7670 N   0  0  0  0  0  0  0  0  0  0  0  0
   -0.5350   -0.0000    3.9440 O   0  0  0  0  0  0  0  0  0  0  0  0
    2.0970    0.0000   -2.2650 H   0  0  0  0  0  0  0  0  0  0  0  0
    2.8320    0.0000    0.0810 H   0  0  0  0  0  0  0  0  0  0  0  0
   -1.9810    0.0100   -1.0120 H   0  0  0  0  0  0  0  0  0  0  0  0
   -2.1700   -0.0010    1.8810 H   0  0  0  0  0  0  0  0  0  0  0  0
  1  2  2  0  0  0  0
  1  6  1  0  0  0  0
  1 12  1  0  0  0  0
  2  3  1  0  0  0  0
  2 13  1  0  0  0  0
  3  4  2  0  0  0  0
  3  8  1  0  0  0  0
  4  5  1  0  0  0  0
  4 10  1  0  0  0  0
  5  6  2  0  0  0  0
  5 14  1  0  0  0  0
  6  7  1  0  0  0  0
  8  9  1  0  0  0  0
  9 10  1  0  0  0  0
  9 11  2  0  0  0  0
 10 15  1  0  0  0  0
M  END
> <OPENEYE_ISO_SMILES>
c1cc2c(cc1Cl)[nH]c(=O)o2

> <OPENEYE_INCHI>
InChI=1S/C7H4ClNO2/c8-4-1-2-6-5(3-4)9-7(10)11-6/h1-3H,(H,9,10)

> <OPENEYE_INCHIKEY>
TZFWDZFKRBELIQ-UHFFFAOYSA-N

> <FORMULA>
C7H4ClNO2

$$$$
