VVM
  -OEChem-02242320043D

 29 30  0     0  0  0  0  0  0999 V2000
    4.2800   -2.1180   -0.1230 N   0  0  0  0  0  0  0  0  0  0  0  0
    1.1480    0.6250   -0.1140 C   0  0  0  0  0  0  0  0  0  0  0  0
    1.2360   -0.3190   -1.1210 C   0  0  0  0  0  0  0  0  0  0  0  0
    2.2730   -1.2300   -1.1270 C   0  0  0  0  0  0  0  0  0  0  0  0
   -1.9940   -0.0190    0.5310 C   0  0  0  0  0  0  0  0  0  0  0  0
   -2.9390   -0.0520   -0.4870 C   0  0  0  0  0  0  0  0  0  0  0  0
   -3.2510   -2.3970   -0.1180 C   0  0  0  0  0  0  0  0  0  0  0  0
    3.2300   -1.1980   -0.1200 C   0  0  0  0  0  0  0  0  0  0  0  0
    3.1380   -0.2490    0.8900 C   0  0  0  0  0  0  0  0  0  0  0  0
    2.0980    0.6600    0.8900 C   0  0  0  0  0  0  0  0  0  0  0  0
   -0.1740    1.7910   -0.1150 S   0  0  0  0  0  0  0  0  0  0  0  0
    0.3190    2.9570    0.5310 O   0  0  0  0  0  0  0  0  0  0  0  0
   -0.7020    1.7980   -1.4340 O   0  0  0  0  0  0  0  0  0  0  0  0
   -1.3640    1.1830    0.8630 N   0  0  0  0  0  0  0  0  0  0  0  0
   -3.5640   -1.2400   -0.8080 C   0  0  0  0  0  0  0  0  0  0  0  0
   -2.3070   -2.3690    0.8920 C   0  0  0  0  0  0  0  0  0  0  0  0
   -1.6810   -1.1830    1.2220 C   0  0  0  0  0  0  0  0  0  0  0  0
    4.3420   -2.7810   -0.8280 H   0  0  0  0  0  0  0  0  0  0  0  0
    4.9490   -2.0920    0.5790 H   0  0  0  0  0  0  0  0  0  0  0  0
    0.4920   -0.3430   -1.9040 H   0  0  0  0  0  0  0  0  0  0  0  0
    2.3410   -1.9670   -1.9140 H   0  0  0  0  0  0  0  0  0  0  0  0
   -3.1840    0.8510   -1.0260 H   0  0  0  0  0  0  0  0  0  0  0  0
   -3.7380   -3.3260   -0.3740 H   0  0  0  0  0  0  0  0  0  0  0  0
    3.8800   -0.2210    1.6740 H   0  0  0  0  0  0  0  0  0  0  0  0
    2.0270    1.3990    1.6740 H   0  0  0  0  0  0  0  0  0  0  0  0
   -1.6230    1.6610    1.6660 H   0  0  0  0  0  0  0  0  0  0  0  0
   -4.2990   -1.2670   -1.5990 H   0  0  0  0  0  0  0  0  0  0  0  0
   -2.0580   -3.2760    1.4230 H   0  0  0  0  0  0  0  0  0  0  0  0
   -0.9500   -1.1600    2.0160 H   0  0  0  0  0  0  0  0  0  0  0  0
  7 15  2  0  0  0  0
  6 15  1  0  0  0  0
  7 16  1  0  0  0  0
  5  6  2  0  0  0  0
 16 17  2  0  0  0  0
  5 17  1  0  0  0  0
  5 14  1  0  0  0  0
 11 12  2  0  0  0  0
 11 14  1  0  0  0  0
  2 11  1  0  0  0  0
 11 13  2  0  0  0  0
  2 10  2  0  0  0  0
  9 10  1  0  0  0  0
  2  3  1  0  0  0  0
  8  9  2  0  0  0  0
  3  4  2  0  0  0  0
  4  8  1  0  0  0  0
  1  8  1  0  0  0  0
  1 18  1  0  0  0  0
  1 19  1  0  0  0  0
  3 20  1  0  0  0  0
  4 21  1  0  0  0  0
  6 22  1  0  0  0  0
  7 23  1  0  0  0  0
  9 24  1  0  0  0  0
 10 25  1  0  0  0  0
 14 26  1  0  0  0  0
 15 27  1  0  0  0  0
 16 28  1  0  0  0  0
 17 29  1  0  0  0  0
M  END
> <OPENEYE_ISO_SMILES>
c1ccc(cc1)NS(=O)(=O)c2ccc(cc2)N

> <OPENEYE_INCHI>
InChI=1S/C12H12N2O2S/c13-10-6-8-12(9-7-10)17(15,16)14-11-4-2-1-3-5-11/h1-9,14H,13H2

> <OPENEYE_INCHIKEY>
YBUXKQSCKVQATK-UHFFFAOYSA-N

> <FORMULA>
C12H12N2O2S

$$$$
