@<TRIPOS>MOLECULE
/home/pku/3cl/gett_pdb/7C8R/7C8R_mol2/ligand/7C8R_TG3.pdb
 45 46 0 0 0
SMALL
GASTEIGER

@<TRIPOS>ATOM
      1  C01       17.1040   24.5690   -9.3190 C.3   401  TG3401      0.0513
      2  C02       17.7810   25.3530   -8.1840 C.3   401  TG3401      0.2086
      3  O03       16.9460   26.4530   -7.9960 O.3   401  TG3401     -0.4485
      4  C04       17.1720   27.2380   -6.8780 C.2   401  TG3401      0.3170
      5  O05       17.3200   26.7590   -5.8050 O.2   401  TG3401     -0.2501
      6  C06       17.1390   28.7170   -7.1660 C.3   401  TG3401      0.1113
      7  C07       17.1280   29.6790   -5.9730 C.3   401  TG3401      0.0333
      8  C08       18.1890   30.7420   -6.2970 C.3   401  TG3401      0.0964
      9  C09       18.6250   31.6080   -5.1010 C.3   401  TG3401      0.0309
     10  C10       19.6910   32.5530   -5.4000 C.3   401  TG3401      0.0817
     11  C11       20.9680   31.8160   -5.7650 C.3   401  TG3401      0.0326
     12  C12       21.9520   32.7110   -5.4720 C.3   401  TG3401      0.1156
     13  N13       21.4510   33.4230   -4.1680 N.am  401  TG3401     -0.2054
     14  C14       20.1070   33.3430   -4.0940 C.2   401  TG3401      0.2410
     15  O15       19.3980   33.8040   -3.2530 O.2   401  TG3401     -0.2734
     16  N16       17.5140   31.6140   -7.2400 N.am  401  TG3401     -0.2057
     17  C17       18.0220   31.8910   -8.5790 C.2   401  TG3401      0.2612
     18  O18       19.0420   31.4070   -8.9580 O.2   401  TG3401     -0.2715
     19  C19       17.1890   32.8450   -9.4470 C.3   401  TG3401      0.1728
     20  C20       16.4050   32.0940  -10.4980 C.3   401  TG3401      0.0311
     21  C21       15.0870   32.7300  -10.9160 C.3   401  TG3401      0.0022
     22  C22       14.7010   32.1780  -12.2730 C.3   401  TG3401      0.0001
     23  C23       15.1060   34.2440  -10.9970 C.3   401  TG3401      0.0001
     24  N24       18.1190   33.7380  -10.1000 N.am  401  TG3401     -0.1963
     25  C25       18.8110   34.7940   -9.3420 C.2   401  TG3401      0.2642
     26  O26       18.6100   34.9050   -8.2030 O.2   401  TG3401     -0.2714
     27  C27       19.8090   35.7580  -10.0480 C.3   401  TG3401      0.2029
     28  N28       19.2690   37.1340   -9.9700 N.am  401  TG3401     -0.1585
     29  C29       18.8350   37.7000  -11.2260 C.2   401  TG3401      0.4219
     30  O30       19.3040   37.2280  -12.1890 O.2   401  TG3401     -0.2245
     31  O31       17.8050   38.6620  -11.3330 O.3   401  TG3401     -0.4285
     32  C32       17.9730   40.0550  -11.5230 C.3   401  TG3401      0.2368
     33  C33       19.0870   40.4000  -12.5070 C.ar  401  TG3401      0.0213
     34  C34       20.0370   41.3610  -12.1530 C.ar  401  TG3401     -0.0007
     35  C35       21.0660   41.6750  -13.0320 C.ar  401  TG3401     -0.0002
     36  C36       21.1320   41.0400  -14.2750 C.ar  401  TG3401     -0.0000
     37  C37       20.1730   40.0870  -14.6340 C.ar  401  TG3401     -0.0002
     38  C38       19.1450   39.7710  -13.7540 C.ar  401  TG3401     -0.0007
     39  C39       21.1970   35.7420   -9.4280 C.3   401  TG3401      0.1439
     40  C40       21.7380   34.3030   -9.4340 C.3   401  TG3401      0.0344
     41  O41       22.0010   36.6120  -10.1880 O.3   401  TG3401     -0.3587
     42  C42       22.8080   37.5630   -9.5460 C.3   401  TG3401      0.0930
     43  C43       23.9080   38.0830  -10.4720 C.3   401  TG3401      0.0296
     44  C44       21.8990   38.7200   -9.1830 C.3   401  TG3401      0.0296
     45  C45       23.5260   36.9730   -8.3200 C.3   401  TG3401      0.0296
@<TRIPOS>BOND
     1    37    36   ar
     2    37    38   ar
     3    36    35   ar
     4    38    33   ar
     5    35    34   ar
     6    33    34   ar
     7    33    32    1
     8    22    21    1
     9    30    29    2
    10    32    31    1
    11    31    29    1
    12    29    28   am
    13    23    21    1
    14    21    20    1
    15    20    19    1
    16    43    42    1
    17    41    42    1
    18    41    39    1
    19    24    19    1
    20    24    25   am
    21    27    28    1
    22    27    39    1
    23    27    25    1
    24    42    44    1
    25    42    45    1
    26    19    17    1
    27    40    39    1
    28    25    26    2
    29     1     2    1
    30    18    17    2
    31    17    16   am
    32     2     3    1
    33     3     4    1
    34    16     8    1
    35     6     4    1
    36     6     7    1
    37     4     5    2
    38     8     7    1
    39     8     9    1
    40    11    12    1
    41    11    10    1
    42    12    13    1
    43    10     9    1
    44    10    14    1
    45    13    14   am
    46    14    15    2
