@<TRIPOS>MOLECULE
/home/pku/3cl/gett_pdb/5SQ2/5SQ2_mol2/ligand/5SQ2_QJU.pdb
 46 50 0 0 0
SMALL
GASTEIGER

@<TRIPOS>ATOM
      1  C18      -50.0870  -28.8330    3.5950 C.ar  201  QJU201     -0.0257
      2  C16      -49.9510  -29.1840    5.9780 C.ar  201  QJU201     -0.0025
      3  C17      -50.7130  -29.0240    4.8300 C.ar  201  QJU201      0.1254
      4  C15      -48.5410  -29.1540    5.9020 C.ar  201  QJU201      0.0515
      5  C14      -47.9110  -28.9700    4.6890 C.ar  201  QJU201      0.0124
      6  C13      -46.4770  -29.0000    4.9650 C.ar  201  QJU201      0.0663
      7  C12      -45.2750  -28.8860    4.2400 C.ar  201  QJU201      0.1343
      8  C10      -45.9250  -29.6820    1.8830 C.3   201  QJU201      0.0135
      9  C19      -48.6950  -28.8070    3.5170 C.ar  201  QJU201     -0.0491
     10  C01      -45.3400  -23.6530   -2.5880 C.3   201  QJU201     -0.0012
     11  C02      -44.2510  -24.5470   -2.0120 C.ar  201  QJU201      0.1687
     12  C05      -43.2630  -26.0380   -0.8230 C.ar  201  QJU201      0.2277
     13  C06      -42.9960  -27.1470    0.1710 C.3   201  QJU201      0.0308
     14  C07      -44.2890  -27.6820    0.7880 C.3   201  QJU201     -0.0168
     15  C08      -45.0920  -28.4150   -0.0830 C.3   201  QJU201     -0.0469
     16  C09      -46.2440  -29.0580    0.5170 C.3   201  QJU201     -0.0369
     17  C22      -46.3720  -29.1950    6.3190 C.ar  201  QJU201      0.1442
     18  C24      -44.0510  -29.1490    6.1690 C.ar  201  QJU201      0.1204
     19  C26      -44.0340  -28.2320    2.1380 C.3   201  QJU201      0.0168
     20  F20      -52.0700  -29.0500    4.9100 F     201  QJU201     -0.2054
     21  N03      -42.9630  -24.5350   -2.3380 N.ar  201  QJU201     -0.0616
     22  N11      -45.3030  -28.6690    2.8230 N.pl3 201  QJU201     -0.3143
     23  N21      -47.6020  -29.2880    6.8680 N.ar  201  QJU201     -0.3389
     24  N23      -45.1460  -29.2680    6.8800 N.ar  201  QJU201     -0.2178
     25  N25      -44.1010  -28.9590    4.8610 N.ar  201  QJU201     -0.2200
     26  N27      -44.4450  -25.4820   -1.0650 N.ar  201  QJU201     -0.1964
     27  O04      -42.3670  -25.4630   -1.5980 O.2   201  QJU201     -0.3381
     28 H181      -50.6880  -28.7150    2.7030 H     201  QJU201      0.0646
     29 H161      -50.4270  -29.3310    6.9360 H     201  QJU201      0.0667
     30 H102      -45.2460  -30.5210    1.7480 H     201  QJU201      0.0464
     31 H101      -46.8380  -30.0520    2.3160 H     201  QJU201      0.0464
     32 H191      -48.2150  -28.6640    2.5510 H     201  QJU201      0.0625
     33 H013      -44.9720  -22.6390   -2.5770 H     201  QJU201      0.0309
     34 H012      -46.2330  -23.7320   -1.9730 H     201  QJU201      0.0309
     35 H011      -45.5640  -23.9610   -3.6010 H     201  QJU201      0.0309
     36 H061      -42.5340  -28.0270   -0.3270 H     201  QJU201      0.0364
     37 H062      -42.3290  -26.8010    0.9500 H     201  QJU201      0.0364
     38 H071      -44.9510  -26.6960    1.0190 H     201  QJU201      0.0321
     39 H082      -44.4230  -29.2300   -0.4540 H     201  QJU201      0.0269
     40 H081      -45.4150  -27.8490   -0.9310 H     201  QJU201      0.0269
     41 H091      -46.5770  -29.8500   -0.1360 H     201  QJU201      0.0280
     42 H092      -47.0440  -28.3200    0.6200 H     201  QJU201      0.0280
     43 H241      -43.0960  -29.2120    6.6630 H     201  QJU201      0.1048
     44 H261      -43.4120  -29.1340    1.9380 H     201  QJU201      0.0467
     45 H262      -43.4640  -27.5720    2.7730 H     201  QJU201      0.0467
     46 H211      -47.7890  -29.4340    7.8370 H     201  QJU201      0.1673
@<TRIPOS>BOND
     1    35    10    1
     2    10    33    1
     3    10    11    1
     4    10    34    1
     5    21    11   ar
     6    21    27   ar
     7    11    26   ar
     8    27    12   ar
     9    26    12   ar
    10    40    15    1
    11    12    13    1
    12    39    15    1
    13    36    13    1
    14    41    16    1
    15    15    16    1
    16    15    14    1
    17    13    14    1
    18    13    37    1
    19    16    42    1
    20    16     8    1
    21    14    38    1
    22    14    19    1
    23    30     8    1
    24     8    31    1
    25     8    22    1
    26    44    19    1
    27    19    45    1
    28    19    22    1
    29    32     9    1
    30    28     1    1
    31    22     7    1
    32     9     1   ar
    33     9     5   ar
    34     1     3   ar
    35     7    25   ar
    36     7     6   ar
    37     5     6   ar
    38     5     4   ar
    39     3    20    1
    40     3     2   ar
    41    25    18   ar
    42     6    17   ar
    43     4     2   ar
    44     4    23   ar
    45     2    29    1
    46    18    43    1
    47    18    24   ar
    48    17    23   ar
    49    17    24   ar
    50    23    46    1
