WUM
  -OEChem-02242320043D

 21 21  0     0  0  0  0  0  0999 V2000
    2.2020    1.3890   -0.6500 C   0  0  0  0  0  0  0  0  0  0  0  0
    2.4270   -0.0260   -0.3250 N   0  0  0  0  0  0  0  0  0  0  0  0
    3.8480   -0.2870   -0.0620 C   0  0  0  0  0  0  0  0  0  0  0  0
    1.5960   -0.4430    0.8120 C   0  0  0  0  0  0  0  0  0  0  0  0
    0.1420   -0.3920    0.4180 C   0  0  0  0  0  0  0  0  0  0  0  0
   -0.5230   -1.4600   -0.0240 C   0  0  0  0  0  0  0  0  0  0  0  0
   -2.1790   -0.9690   -0.3700 S   0  0  0  0  0  0  0  0  0  0  0  0
   -1.8170    0.6300    0.1150 C   0  0  0  0  0  0  0  0  0  0  0  0
   -2.7190    1.6830    0.1150 N   0  0  0  0  0  0  0  0  0  0  0  0
   -0.5780    0.7140    0.4870 N   0  0  0  0  0  0  0  0  0  0  0  0
    2.7760    1.6530   -1.5380 H   0  0  0  0  0  0  0  0  0  0  0  0
    1.1420    1.5540   -0.8400 H   0  0  0  0  0  0  0  0  0  0  0  0
    2.5230    2.0090    0.1880 H   0  0  0  0  0  0  0  0  0  0  0  0
    4.1620    0.2680    0.8220 H   0  0  0  0  0  0  0  0  0  0  0  0
    3.9970   -1.3540    0.1070 H   0  0  0  0  0  0  0  0  0  0  0  0
    4.4410    0.0310   -0.9200 H   0  0  0  0  0  0  0  0  0  0  0  0
    1.8580   -1.4610    1.1000 H   0  0  0  0  0  0  0  0  0  0  0  0
    1.7680    0.2280    1.6540 H   0  0  0  0  0  0  0  0  0  0  0  0
   -0.1160   -2.4530   -0.1490 H   0  0  0  0  0  0  0  0  0  0  0  0
   -3.6330    1.5390   -0.1760 H   0  0  0  0  0  0  0  0  0  0  0  0
   -2.4360    2.5640    0.4050 H   0  0  0  0  0  0  0  0  0  0  0  0
  1  2  1  0  0  0  0
  6  7  1  0  0  0  0
  7  8  1  0  0  0  0
  5  6  2  0  0  0  0
  2  3  1  0  0  0  0
  2  4  1  0  0  0  0
  4  5  1  0  0  0  0
  5 10  1  0  0  0  0
  8  9  1  0  0  0  0
  8 10  2  0  0  0  0
  1 11  1  0  0  0  0
  1 12  1  0  0  0  0
  1 13  1  0  0  0  0
  3 14  1  0  0  0  0
  3 15  1  0  0  0  0
  3 16  1  0  0  0  0
  4 17  1  0  0  0  0
  4 18  1  0  0  0  0
  6 19  1  0  0  0  0
  9 20  1  0  0  0  0
  9 21  1  0  0  0  0
M  END
> <OPENEYE_ISO_SMILES>
CN(C)Cc1csc(n1)N

> <OPENEYE_INCHI>
InChI=1S/C6H11N3S/c1-9(2)3-5-4-10-6(7)8-5/h4H,3H2,1-2H3,(H2,7,8)

> <OPENEYE_INCHIKEY>
HYQAPLLDHDEUSD-UHFFFAOYSA-N

> <FORMULA>
C6H11N3S

$$$$
