WXJ
  -OEChem-02242320043D

 33 35  0     0  0  0  0  0  0999 V2000
   -2.4170   -1.0660    0.5340 C   0  0  0  0  0  0  0  0  0  0  0  0
   -4.5020   -0.2870   -0.3700 C   0  0  0  0  0  0  0  0  0  0  0  0
   -5.8360   -0.5560   -0.8170 C   0  0  0  0  0  0  0  0  0  0  0  0
    3.7810   -0.1300   -1.2860 C   0  0  0  0  0  0  0  0  0  0  0  0
    3.2210   -0.8430   -0.2120 C   0  0  0  0  0  0  0  0  0  0  0  0
    2.5400   -2.2090    1.3080 C   0  0  0  0  0  0  0  0  0  0  0  0
    2.3640   -0.1550    0.6760 C   0  0  0  0  0  0  0  0  0  0  0  0
    2.6910    1.7920   -0.6020 C   0  0  0  0  0  0  0  0  0  0  0  0
    1.2350    1.9280    1.3440 C   0  0  0  0  0  0  0  0  0  0  0  0
   -0.2040    1.8390    0.8340 C   0  0  0  0  0  0  0  0  0  0  0  0
   -1.9190    0.2310    0.4890 C   0  0  0  0  0  0  0  0  0  0  0  0
   -3.6990   -1.3280    0.1050 C   0  0  0  0  0  0  0  0  0  0  0  0
   -3.9990    1.0160   -0.4080 C   0  0  0  0  0  0  0  0  0  0  0  0
   -2.7140    1.2690    0.0180 C   0  0  0  0  0  0  0  0  0  0  0  0
    4.6190   -0.7560   -2.1740 N   0  0  0  0  0  0  0  0  0  0  0  0
    3.2900   -2.1090    0.2310 N   0  0  0  0  0  0  0  0  0  0  0  0
    1.9770   -1.0380    1.5850 N   0  0  0  0  0  0  0  0  0  0  0  0
    2.1180    1.1790    0.4470 N   0  0  0  0  0  0  0  0  0  0  0  0
    3.4820    1.1640   -1.4340 N   0  0  0  0  0  0  0  0  0  0  0  0
   -6.8940   -0.7690   -1.1720 N   0  0  0  0  0  0  0  0  0  0  0  0
   -0.6530    0.4840    0.9070 O   0  0  0  0  0  0  0  0  0  0  0  0
   -1.7960   -1.8700    0.9010 H   0  0  0  0  0  0  0  0  0  0  0  0
    2.4010   -3.1130    1.8830 H   0  0  0  0  0  0  0  0  0  0  0  0
    2.4840    2.8390   -0.7700 H   0  0  0  0  0  0  0  0  0  0  0  0
    1.5470    2.9720    1.3720 H   0  0  0  0  0  0  0  0  0  0  0  0
    1.2920    1.5050    2.3470 H   0  0  0  0  0  0  0  0  0  0  0  0
   -0.8480    2.4680    1.4490 H   0  0  0  0  0  0  0  0  0  0  0  0
   -0.2450    2.1800   -0.2000 H   0  0  0  0  0  0  0  0  0  0  0  0
   -4.0840   -2.3370    0.1360 H   0  0  0  0  0  0  0  0  0  0  0  0
   -4.6160    1.8230   -0.7740 H   0  0  0  0  0  0  0  0  0  0  0  0
   -2.3250    2.2760   -0.0110 H   0  0  0  0  0  0  0  0  0  0  0  0
    4.8290   -1.6960   -2.0630 H   0  0  0  0  0  0  0  0  0  0  0  0
    5.0020   -0.2570   -2.9130 H   0  0  0  0  0  0  0  0  0  0  0  0
  3 20  3  0  0  0  0
 13 14  2  0  0  0  0
  2 13  1  0  0  0  0
  2  3  1  0  0  0  0
 11 14  1  0  0  0  0
  2 12  2  0  0  0  0
  9 10  1  0  0  0  0
 10 21  1  0  0  0  0
  9 18  1  0  0  0  0
 11 21  1  0  0  0  0
  1 11  2  0  0  0  0
  1 12  1  0  0  0  0
  8 18  1  0  0  0  0
  7 18  1  0  0  0  0
  8 19  2  0  0  0  0
  7 17  2  0  0  0  0
  5  7  1  0  0  0  0
  6 17  1  0  0  0  0
  4 19  1  0  0  0  0
  4  5  2  0  0  0  0
  5 16  1  0  0  0  0
  6 16  2  0  0  0  0
  4 15  1  0  0  0  0
  1 22  1  0  0  0  0
  6 23  1  0  0  0  0
  8 24  1  0  0  0  0
  9 25  1  0  0  0  0
  9 26  1  0  0  0  0
 10 27  1  0  0  0  0
 10 28  1  0  0  0  0
 12 29  1  0  0  0  0
 13 30  1  0  0  0  0
 14 31  1  0  0  0  0
 15 32  1  0  0  0  0
 15 33  1  0  0  0  0
M  END
> <OPENEYE_ISO_SMILES>
c1cc(ccc1C#N)OCCn2cnc(c-3ncnc23)N

> <OPENEYE_INCHI>
InChI=1S/C14H12N6O/c15-7-10-1-3-11(4-2-10)21-6-5-20-9-19-13(16)12-14(20)18-8-17-12/h1-4,8-9H,5-6,16H2

> <OPENEYE_INCHIKEY>
CBAGAAVPVKUMPM-UHFFFAOYSA-N

> <FORMULA>
C14H12N6O

$$$$
