@<TRIPOS>MOLECULE
/home/pku/3cl/gett_pdb/6WOJ/6WOJ_mol2/ligand/6WOJ_APR.pdb
 36 39 0 0 0
SMALL
GASTEIGER

@<TRIPOS>ATOM
      1  N1        33.7840   15.0930   42.3490 N.ar  201  APR201     -0.2040
      2  C2        33.2690   16.1360   41.6830 C.ar  201  APR201      0.2016
      3  N3        33.3090   16.4140   40.3820 N.ar  201  APR201     -0.2048
      4  C4        33.9970   15.4660   39.7290 C.ar  201  APR201      0.1692
      5  C5        34.6060   14.3570   40.2730 C.ar  201  APR201      0.1518
      6  C6        34.5010   14.1790   41.6630 C.ar  201  APR201      0.1919
      7  N6        35.0170   13.1490   42.3250 N.pl3 201  APR201     -0.1054
      8  N7        35.2250   13.6140   39.2760 N.ar  201  APR201     -0.2193
      9  C8        34.9790   14.2700   38.1650 C.ar  201  APR201      0.1816
     10  N9        34.2370   15.4110   38.3840 N.ar  201  APR201     -0.2693
     11  C1'       33.7640   16.3680   37.4010 C.3   201  APR201      0.2409
     12  C2'       34.5300   16.3520   36.0810 C.3   201  APR201      0.2337
     13  O2'       35.7110   17.1190   36.1380 O.3   201  APR201     -0.2155
     14  C3'       33.4860   16.9790   35.1570 C.3   201  APR201      0.2161
     15  O3'       33.6290   18.3740   35.3820 O.3   201  APR201     -0.2175
     16  O4'       32.4310   16.0430   37.0750 O.3   201  APR201     -0.3306
     17  C4'       32.1840   16.3480   35.6780 C.3   201  APR201      0.1801
     18  C5'       31.7300   15.0740   35.0000 C.3   201  APR201      0.1813
     19  O5'       32.8620   14.1820   34.8060 O.3   201  APR201     -0.3112
     20  PA        32.5790   12.6240   34.5480 P.3   201  APR201      0.2189
     21  O1A       32.2710   11.9230   35.8280 O.3   201  APR201     -0.4371
     22  O2A       33.6590   12.0510   33.6900 O.2   201  APR201     -0.5170
     23  O3A       31.2200   12.7170   33.7170 O.3   201  APR201     -0.2703
     24  PB        30.8240   12.4860   32.1850 P.3   201  APR201      0.2189
     25  O1B       29.3350   12.5200   32.0870 O.3   201  APR201     -0.4371
     26  O2B       31.6310   13.4080   31.3310 O.2   201  APR201     -0.5170
     27  O5D       31.3520   10.9920   31.9790 O.3   201  APR201     -0.3112
     28  C5D       30.4770    9.8510   31.9190 C.3   201  APR201      0.1813
     29  O4D       32.3300    8.7050   32.9090 O.3   201  APR201     -0.3237
     30  O1D       32.8180    7.5960   34.8620 O.3   201  APR201     -0.1869
     31  C1D       32.3850    7.4540   33.5630 C.3   201  APR201      0.3023
     32  O2D       30.7640    5.5980   33.8150 O.3   201  APR201     -0.2148
     33  C2D       30.9390    6.9580   33.4940 C.3   201  APR201      0.2433
     34  O3D       31.2620    6.2740   31.2110 O.3   201  APR201     -0.2175
     35  C3D       30.6500    7.2610   32.0300 C.3   201  APR201      0.2168
     36  C4D       31.3470    8.6180   31.8500 C.3   201  APR201      0.1807
@<TRIPOS>BOND
     1    34    35    1
     2    26    24    2
     3    36    28    1
     4    36    35    1
     5    36    29    1
     6    28    27    1
     7    27    24    1
     8    35    33    1
     9    25    24    1
    10    24    23    1
    11    29    31    1
    12    33    31    1
    13    33    32    1
    14    31    30    1
    15    22    20    2
    16    23    20    1
    17    20    19    1
    18    20    21    1
    19    19    18    1
    20    18    17    1
    21    14    15    1
    22    14    17    1
    23    14    12    1
    24    17    16    1
    25    12    13    1
    26    12    11    1
    27    16    11    1
    28    11    10    1
    29     9    10   ar
    30     9     8   ar
    31    10     4   ar
    32     8     5   ar
    33     4     5   ar
    34     4     3   ar
    35     5     6   ar
    36     3     2   ar
    37     6     7    1
    38     6     1   ar
    39     2     1   ar
