@<TRIPOS>MOLECULE
/home/pku/3cl/gett_pdb/5SP9/5SP9_mol2/ligand/5SP9_RWC.pdb
 48 51 0 0 0
SMALL
GASTEIGER

@<TRIPOS>ATOM
      1  C19      -24.4100   -0.6580   17.7060 C.2   201  RWC201      0.3041
      2  C21      -25.5140   -2.5100   19.0210 C.3   201  RWC201      0.0247
      3  C22      -25.1760   -3.3980   20.2180 C.3   201  RWC201     -0.0328
      4  C26      -22.9320    1.3610   14.0800 C.ar  201  RWC201     -0.0479
      5  C25      -23.4650    0.7420   15.2060 C.ar  201  RWC201     -0.0397
      6  C23      -26.5280   -2.7110   20.1550 C.3   201  RWC201     -0.0328
      7  C10      -24.1290    7.2680   15.2260 C.ar  201  RWC201     -0.0614
      8  C11      -24.5320    5.9580   14.8240 C.ar  201  RWC201     -0.0600
      9  C16      -22.4850    2.4260   16.6160 C.ar  201  RWC201     -0.0397
     10  C17      -23.2510    1.2810   16.4730 C.ar  201  RWC201      0.0348
     11  C15      -21.9520    3.0410   15.4940 C.ar  201  RWC201     -0.0479
     12  C14      -22.1850    2.5240   14.2260 C.ar  201  RWC201      0.0373
     13  C13      -21.5160    3.2710   13.0180 C.2   201  RWC201      0.2509
     14  C12      -23.7950    5.1180   14.0580 C.ar  201  RWC201     -0.0400
     15  C02      -19.4720    7.3530   11.2580 C.2   201  RWC201      0.0920
     16  C03      -20.0950    6.4720   12.3920 C.3   201  RWC201      0.0279
     17  C04      -21.0540    5.4600   11.7520 C.3   201  RWC201      0.0291
     18  C06      -22.5570    5.5690   13.6470 C.ar  201  RWC201      0.0398
     19  C07      -22.1190    6.8380   13.9840 C.ar  201  RWC201     -0.0253
     20  C08      -20.7320    7.3570   13.4800 C.3   201  RWC201     -0.0158
     21  C09      -22.8840    7.7110   14.7750 C.ar  201  RWC201     -0.0568
     22  N05      -21.7020    4.7310   12.7950 N.am  201  RWC201     -0.2665
     23  N18      -23.7520    0.6560   17.7030 N.am  201  RWC201     -0.2695
     24  N20      -24.8360   -1.2160   18.9840 N.am  201  RWC201     -0.2963
     25  O01      -18.9240    6.7950   10.2660 O.co2 201  RWC201     -0.8474
     26  O24      -24.6250   -1.2750   16.7160 O.2   201  RWC201     -0.2525
     27  O27      -20.7870    2.6640   12.3010 O.2   201  RWC201     -0.2696
     28  O28      -19.5020    8.6130   11.3210 O.co2 201  RWC201     -0.3087
     29 H211      -25.7130   -3.0470   18.0890 H     201  RWC201      0.0499
     30 H221      -24.4970   -2.9660   20.9540 H     201  RWC201      0.0284
     31 H222      -25.2360   -4.4600   20.0680 H     201  RWC201      0.0284
     32 H261      -23.1220    0.9490   13.0940 H     201  RWC201      0.0626
     33 H251      -24.0590   -0.1600   15.0870 H     201  RWC201      0.0636
     34 H231      -27.3940   -3.2760   19.8600 H     201  RWC201      0.0284
     35 H232      -26.6000   -2.0300   20.9800 H     201  RWC201      0.0284
     36 H101      -24.7520    7.9280   15.8690 H     201  RWC201      0.0618
     37 H111      -25.4820    5.4950   15.0970 H     201  RWC201      0.0618
     38 H161      -22.3070    2.8470   17.6070 H     201  RWC201      0.0636
     39 H151      -21.3770    3.9450   15.6060 H     201  RWC201      0.0626
     40 H121      -24.2170    4.1380   13.8620 H     201  RWC201      0.0636
     41 H031      -19.2940    5.9010   12.8690 H     201  RWC201      0.0387
     42 H041      -20.5110    4.7520   11.1380 H     201  RWC201      0.0475
     43 H042      -21.8120    6.0150   11.2040 H     201  RWC201      0.0475
     44 H082      -20.9050    8.3550   13.0920 H     201  RWC201      0.0321
     45 H081      -20.0660    7.3650   14.3320 H     201  RWC201      0.0321
     46 H091      -22.5220    8.6960   15.0460 H     201  RWC201      0.0621
     47 H181      -23.5770    1.1190   18.5830 H     201  RWC201      0.1564
     48 H201      -24.6570   -0.7140   19.8250 H     201  RWC201      0.1505
@<TRIPOS>UNITY_ATOM_ATTR
25 1
charge -1
@<TRIPOS>BOND
     1    25    15   ar
     2    42    17    1
     3    43    17    1
     4    15    28   ar
     5    15    16    1
     6    17    16    1
     7    17    22    1
     8    27    13    2
     9    16    41    1
    10    16    20    1
    11    22    13   am
    12    22    18    1
    13    13    12    1
    14    44    20    1
    15    32     4    1
    16    20    19    1
    17    20    45    1
    18    18    19   ar
    19    18    14   ar
    20    40    14    1
    21    19    21   ar
    22    14     8   ar
    23     4    12   ar
    24     4     5   ar
    25    12    11   ar
    26    21    46    1
    27    21     7   ar
    28     8    37    1
    29     8     7   ar
    30    33     5    1
    31     5    10   ar
    32     7    36    1
    33    11    39    1
    34    11     9   ar
    35    10     9   ar
    36    10    23    1
    37     9    38    1
    38    26     1    2
    39    23     1   am
    40    23    47    1
    41     1    24   am
    42    29     2    1
    43    24     2    1
    44    24    48    1
    45     2     6    1
    46     2     3    1
    47    34     6    1
    48    31     3    1
    49     6     3    1
    50     6    35    1
    51     3    30    1
