T8P
  -OEChem-02242320043D

 35 36  0     0  0  0  0  0  0999 V2000
   -3.1120    0.0710   -0.2710 N   0  0  0  0  0  0  0  0  0  0  0  0
    1.0140   -0.0690   -0.3570 C   0  0  0  0  0  0  0  0  0  0  0  0
    1.5300   -1.2570    0.1420 C   0  0  0  0  0  0  0  0  0  0  0  0
    2.8760   -1.3570    0.4330 C   0  0  0  0  0  0  0  0  0  0  0  0
   -1.0480   -1.2250   -0.3570 C   0  0  0  0  0  0  0  0  0  0  0  0
   -2.4950   -1.1310   -0.8540 C   0  0  0  0  0  0  0  0  0  0  0  0
   -0.9590    1.1600    0.0760 C   0  0  0  0  0  0  0  0  0  0  0  0
   -0.3510    0.0350   -0.6470 N   0  0  0  0  0  0  0  0  0  0  0  0
    5.8420    0.7880    0.2780 C   0  0  0  0  0  0  0  0  0  0  0  0
    5.0390   -0.3700    0.5150 O   0  0  0  0  0  0  0  0  0  0  0  0
    3.7130   -0.2710    0.2270 C   0  0  0  0  0  0  0  0  0  0  0  0
   -4.2940   -0.0020    0.3710 C   0  0  0  0  0  0  0  0  0  0  0  0
   -4.9090    1.2420    0.9610 C   0  0  0  0  0  0  0  0  0  0  0  0
    3.1990    0.9170   -0.2720 C   0  0  0  0  0  0  0  0  0  0  0  0
    1.8530    1.0180   -0.5640 C   0  0  0  0  0  0  0  0  0  0  0  0
   -2.4010    1.3520   -0.4030 C   0  0  0  0  0  0  0  0  0  0  0  0
   -4.8640   -1.0670    0.4750 O   0  0  0  0  0  0  0  0  0  0  0  0
    0.8780   -2.1030    0.3030 H   0  0  0  0  0  0  0  0  0  0  0  0
    3.2770   -2.2820    0.8220 H   0  0  0  0  0  0  0  0  0  0  0  0
   -1.0440   -1.4030    0.7190 H   0  0  0  0  0  0  0  0  0  0  0  0
   -0.5420   -2.0460   -0.8630 H   0  0  0  0  0  0  0  0  0  0  0  0
   -3.0480   -2.0160   -0.5400 H   0  0  0  0  0  0  0  0  0  0  0  0
   -2.5040   -1.0560   -1.9410 H   0  0  0  0  0  0  0  0  0  0  0  0
   -0.9560    0.9480    1.1450 H   0  0  0  0  0  0  0  0  0  0  0  0
   -0.3870    2.0680   -0.1160 H   0  0  0  0  0  0  0  0  0  0  0  0
    6.8760    0.5740    0.5480 H   0  0  0  0  0  0  0  0  0  0  0  0
    5.7900    1.0570   -0.7770 H   0  0  0  0  0  0  0  0  0  0  0  0
    5.4720    1.6160    0.8820 H   0  0  0  0  0  0  0  0  0  0  0  0
   -5.0830    1.9710    0.1700 H   0  0  0  0  0  0  0  0  0  0  0  0
   -5.8560    0.9880    1.4360 H   0  0  0  0  0  0  0  0  0  0  0  0
   -4.2320    1.6650    1.7020 H   0  0  0  0  0  0  0  0  0  0  0  0
    3.8510    1.7620   -0.4330 H   0  0  0  0  0  0  0  0  0  0  0  0
    1.4530    1.9430   -0.9530 H   0  0  0  0  0  0  0  0  0  0  0  0
   -2.4020    1.6650   -1.4470 H   0  0  0  0  0  0  0  0  0  0  0  0
   -2.8930    2.1080    0.2090 H   0  0  0  0  0  0  0  0  0  0  0  0
  9 10  1  0  0  0  0
 10 11  1  0  0  0  0
 11 14  1  0  0  0  0
 14 15  2  0  0  0  0
  2 15  1  0  0  0  0
  2  3  2  0  0  0  0
  3  4  1  0  0  0  0
  4 11  2  0  0  0  0
  2  8  1  0  0  0  0
  5  8  1  0  0  0  0
  5  6  1  0  0  0  0
  1  6  1  0  0  0  0
  1 16  1  0  0  0  0
  7 16  1  0  0  0  0
  7  8  1  0  0  0  0
  1 12  1  0  0  0  0
 12 17  2  0  0  0  0
 12 13  1  0  0  0  0
  3 18  1  0  0  0  0
  4 19  1  0  0  0  0
  5 20  1  0  0  0  0
  5 21  1  0  0  0  0
  6 22  1  0  0  0  0
  6 23  1  0  0  0  0
  7 24  1  0  0  0  0
  7 25  1  0  0  0  0
  9 26  1  0  0  0  0
  9 27  1  0  0  0  0
  9 28  1  0  0  0  0
 13 29  1  0  0  0  0
 13 30  1  0  0  0  0
 13 31  1  0  0  0  0
 14 32  1  0  0  0  0
 15 33  1  0  0  0  0
 16 34  1  0  0  0  0
 16 35  1  0  0  0  0
M  END
> <OPENEYE_ISO_SMILES>
CC(=O)N1CCN(CC1)c2ccc(cc2)OC

> <OPENEYE_INCHI>
InChI=1S/C13H18N2O2/c1-11(16)14-7-9-15(10-8-14)12-3-5-13(17-2)6-4-12/h3-6H,7-10H2,1-2H3

> <OPENEYE_INCHIKEY>
AVCQLYXAEKNILW-UHFFFAOYSA-N

> <FORMULA>
C13H18N2O2

$$$$
