GTG
  -OEChem-02242320023D

 82 87  0     1  0  0  0  0  0999 V2000
   -2.7720   -3.7430    0.3350 P   0  0  2  0  0  0  0  0  0  0  0  0
   -3.0350   -4.9590    1.1360 O   0  0  0  0  0  0  0  0  0  0  0  0
   -3.2490   -3.9860   -1.1830 O   0  0  0  0  0  0  0  0  0  0  0  0
   -1.1960   -3.4160    0.3560 O   0  0  0  0  0  0  0  0  0  0  0  0
    0.1330   -4.3070    0.1770 P   0  0  2  0  0  0  0  0  0  0  0  0
   -0.0370   -5.2210   -0.9740 O   0  0  0  0  0  0  0  0  0  0  0  0
    0.3860   -5.1690    1.5140 O   0  0  0  0  0  0  0  0  0  0  0  0
    1.3950   -3.3420   -0.0850 O   0  0  0  0  0  0  0  0  0  0  0  0
   -6.5360    1.6240   -0.1700 N   0  0  0  0  0  0  0  0  0  0  0  0
   -6.1940    1.2820   -1.4470 C   0  0  0  0  0  0  0  0  0  0  0  0
   -6.5270    2.2380   -2.2630 N   0  3  0  0  0  0  0  0  0  0  0  0
   -6.3160    2.2260   -3.7130 C   0  0  0  0  0  0  0  0  0  0  0  0
   -7.1010    3.2470   -1.5640 C   0  0  0  0  0  0  0  0  0  0  0  0
   -7.6420    4.5060   -1.9140 C   0  0  0  0  0  0  0  0  0  0  0  0
   -7.6530    4.8800   -3.0750 O   0  0  0  0  0  0  0  0  0  0  0  0
   -8.1480    5.2830   -0.9310 N   0  0  0  0  0  0  0  0  0  0  0  0
   -8.1300    4.8550    0.3630 C   0  0  0  0  0  0  0  0  0  0  0  0
   -8.6510    5.6660    1.3400 N   0  0  0  0  0  0  0  0  0  0  0  0
   -7.6300    3.6880    0.7010 N   0  0  0  0  0  0  0  0  0  0  0  0
   -7.1120    2.8640   -0.2170 C   0  0  0  0  0  0  0  0  0  0  0  0
   -3.5860   -2.5020    0.9610 O   0  0  0  0  0  0  0  0  0  0  0  0
   -4.9980   -2.5270    1.1770 C   0  0  0  0  0  0  0  0  0  0  0  0
   -5.4450   -1.1950    1.7810 C   0  0  1  0  0  0  0  0  0  0  0  0
   -5.2600   -0.1380    0.8240 O   0  0  0  0  0  0  0  0  0  0  0  0
   -6.9480   -1.2500    2.1180 C   0  0  1  0  0  0  0  0  0  0  0  0
   -7.1550   -1.0380    3.5150 O   0  0  0  0  0  0  0  0  0  0  0  0
   -7.5640   -0.0910    1.2960 C   0  0  1  0  0  0  0  0  0  0  0  0
   -8.5500    0.6070    2.0600 O   0  0  0  0  0  0  0  0  0  0  0  0
   -6.3310    0.8090    1.0300 C   0  0  2  0  0  0  0  0  0  0  0  0
    2.8570   -3.5610   -0.7230 P   0  0  2  0  0  0  0  0  0  0  0  0
    2.7390   -4.3570   -1.9650 O   0  0  0  0  0  0  0  0  0  0  0  0
    3.7900   -4.3440    0.3300 O   0  0  0  0  0  0  0  0  0  0  0  0
    3.5140   -2.1310   -1.0620 O   0  0  0  0  0  0  0  0  0  0  0  0
    4.7670   -1.9900   -1.7340 C   0  0  0  0  0  0  0  0  0  0  0  0
    5.0950   -0.5040   -1.8960 C   0  0  1  0  0  0  0  0  0  0  0  0
    5.3250    0.0890   -0.6070 O   0  0  0  0  0  0  0  0  0  0  0  0
    6.3900   -0.3390   -2.7140 C   0  0  1  0  0  0  0  0  0  0  0  0
    6.1380    0.4080   -3.9060 O   0  0  0  0  0  0  0  0  0  0  0  0
    7.3360    0.4460   -1.7730 C   0  0  1  0  0  0  0  0  0  0  0  0
    8.0650    1.4400   -2.4960 O   0  0  0  0  0  0  0  0  0  0  0  0
    6.3390    1.1020   -0.7840 C   0  0  2  0  0  0  0  0  0  0  0  0
    6.9970    1.4000    0.4910 N   0  0  0  0  0  0  0  0  0  0  0  0
    7.0720    0.5730    1.5740 C   0  0  0  0  0  0  0  0  0  0  0  0
    7.7290    1.1590    2.5310 N   0  0  0  0  0  0  0  0  0  0  0  0
    8.1140    2.3930    2.1220 C   0  0  0  0  0  0  0  0  0  0  0  0
    8.8370    3.4500    2.7240 C   0  0  0  0  0  0  0  0  0  0  0  0
    9.2610    3.3480    3.8620 O   0  0  0  0  0  0  0  0  0  0  0  0
    9.0460    4.5750    2.0050 N   0  0  0  0  0  0  0  0  0  0  0  0
    8.5680    4.6770    0.7330 C   0  0  0  0  0  0  0  0  0  0  0  0
    8.7960    5.8320    0.0260 N   0  0  0  0  0  0  0  0  0  0  0  0
    7.8950    3.7030    0.1620 N   0  0  0  0  0  0  0  0  0  0  0  0
    7.6540    2.5570    0.8110 C   0  0  0  0  0  0  0  0  0  0  0  0
   -3.1070   -3.2280   -1.7670 H   0  0  0  0  0  0  0  0  0  0  0  0
    0.5060   -4.6340    2.3100 H   0  0  0  0  0  0  0  0  0  0  0  0
   -5.7190    0.3560   -1.7350 H   0  0  0  0  0  0  0  0  0  0  0  0
   -7.1860    1.7890   -4.2040 H   0  0  0  0  0  0  0  0  0  0  0  0
   -6.1720    3.2470   -4.0680 H   0  0  0  0  0  0  0  0  0  0  0  0
   -5.4310    1.6330   -3.9460 H   0  0  0  0  0  0  0  0  0  0  0  0
   -8.5240    6.1510   -1.1470 H   0  0  0  0  0  0  0  0  0  0  0  0
   -9.0240    6.5300    1.1050 H   0  0  0  0  0  0  0  0  0  0  0  0
   -8.6460    5.3750    2.2650 H   0  0  0  0  0  0  0  0  0  0  0  0
   -5.5080   -2.6850    0.2270 H   0  0  0  0  0  0  0  0  0  0  0  0
   -5.2460   -3.3380    1.8620 H   0  0  0  0  0  0  0  0  0  0  0  0
   -4.8690   -0.9840    2.6810 H   0  0  0  0  0  0  0  0  0  0  0  0
   -7.3730   -2.2060    1.8110 H   0  0  0  0  0  0  0  0  0  0  0  0
   -8.0840   -1.0620    3.7830 H   0  0  0  0  0  0  0  0  0  0  0  0
   -7.9870   -0.4590    0.3620 H   0  0  0  0  0  0  0  0  0  0  0  0
   -9.3000    0.0600    2.3280 H   0  0  0  0  0  0  0  0  0  0  0  0
   -6.1220    1.4430    1.8910 H   0  0  0  0  0  0  0  0  0  0  0  0
    3.9120   -3.8790    1.1690 H   0  0  0  0  0  0  0  0  0  0  0  0
    5.5490   -2.4730   -1.1500 H   0  0  0  0  0  0  0  0  0  0  0  0
    4.7070   -2.4570   -2.7170 H   0  0  0  0  0  0  0  0  0  0  0  0
    4.2710    0.0050   -2.3960 H   0  0  0  0  0  0  0  0  0  0  0  0
    6.8140   -1.3130   -2.9580 H   0  0  0  0  0  0  0  0  0  0  0  0
    6.9190    0.5420   -4.4590 H   0  0  0  0  0  0  0  0  0  0  0  0
    8.0140   -0.2290   -1.2520 H   0  0  0  0  0  0  0  0  0  0  0  0
    8.6360    1.0830   -3.1890 H   0  0  0  0  0  0  0  0  0  0  0  0
    5.9080    2.0050   -1.2150 H   0  0  0  0  0  0  0  0  0  0  0  0
    6.6490   -0.4190    1.6280 H   0  0  0  0  0  0  0  0  0  0  0  0
    9.5380    5.3130    2.3960 H   0  0  0  0  0  0  0  0  0  0  0  0
    9.2910    6.5600    0.4340 H   0  0  0  0  0  0  0  0  0  0  0  0
    8.4620    5.9200   -0.8800 H   0  0  0  0  0  0  0  0  0  0  0  0
  1  2  2  0  0  0  0
  1  3  1  0  0  0  0
  1  4  1  0  0  0  0
  1 21  1  0  0  0  0
  3 53  1  0  0  0  0
  4  5  1  0  0  0  0
  5  6  2  0  0  0  0
  5  7  1  0  0  0  0
  5  8  1  0  0  0  0
  7 54  1  0  0  0  0
  8 30  1  0  0  0  0
  9 10  1  0  0  0  0
  9 20  1  0  0  0  0
  9 29  1  0  0  0  0
 10 11  2  0  0  0  0
 10 55  1  0  0  0  0
 11 12  1  0  0  0  0
 11 13  1  0  0  0  0
 12 56  1  0  0  0  0
 12 57  1  0  0  0  0
 12 58  1  0  0  0  0
 13 14  1  0  0  0  0
 13 20  2  0  0  0  0
 14 15  2  0  0  0  0
 14 16  1  0  0  0  0
 16 17  1  0  0  0  0
 16 59  1  0  0  0  0
 17 18  1  0  0  0  0
 17 19  2  0  0  0  0
 18 60  1  0  0  0  0
 18 61  1  0  0  0  0
 19 20  1  0  0  0  0
 21 22  1  0  0  0  0
 22 23  1  0  0  0  0
 22 62  1  0  0  0  0
 22 63  1  0  0  0  0
 23 24  1  0  0  0  0
 23 25  1  0  0  0  0
 23 64  1  0  0  0  0
 24 29  1  0  0  0  0
 25 26  1  0  0  0  0
 25 27  1  0  0  0  0
 25 65  1  0  0  0  0
 26 66  1  0  0  0  0
 27 28  1  0  0  0  0
 27 29  1  0  0  0  0
 27 67  1  0  0  0  0
 28 68  1  0  0  0  0
 29 69  1  0  0  0  0
 30 31  2  0  0  0  0
 30 32  1  0  0  0  0
 30 33  1  0  0  0  0
 32 70  1  0  0  0  0
 33 34  1  0  0  0  0
 34 35  1  0  0  0  0
 34 71  1  0  0  0  0
 34 72  1  0  0  0  0
 35 36  1  0  0  0  0
 35 37  1  0  0  0  0
 35 73  1  0  0  0  0
 36 41  1  0  0  0  0
 37 38  1  0  0  0  0
 37 39  1  0  0  0  0
 37 74  1  0  0  0  0
 38 75  1  0  0  0  0
 39 40  1  0  0  0  0
 39 41  1  0  0  0  0
 39 76  1  0  0  0  0
 40 77  1  0  0  0  0
 41 42  1  0  0  0  0
 41 78  1  0  0  0  0
 42 43  1  0  0  0  0
 42 52  1  0  0  0  0
 43 44  2  0  0  0  0
 43 79  1  0  0  0  0
 44 45  1  0  0  0  0
 45 46  1  0  0  0  0
 45 52  2  0  0  0  0
 46 47  2  0  0  0  0
 46 48  1  0  0  0  0
 48 49  1  0  0  0  0
 48 80  1  0  0  0  0
 49 50  1  0  0  0  0
 49 51  2  0  0  0  0
 50 81  1  0  0  0  0
 50 82  1  0  0  0  0
 51 52  1  0  0  0  0
M  CHG  1  11   1
M  END
> <OPENEYE_ISO_SMILES>
C[n+]1cn(c2c1c(=O)[nH]c(n2)N)[C@H]3[C@@H]([C@@H]([C@H](O3)CO[P@@](=O)(O)O[P@](=O)(O)O[P@](=O)(O)OC[C@@H]4[C@H]([C@H]([C@@H](O4)n5cnc6c5nc([nH]c6=O)N)O)O)O)O

> <OPENEYE_INCHI>
InChI=1S/C21H29N10O18P3/c1-29-5-31(15-9(29)17(37)28-21(23)26-15)19-13(35)11(33)7(47-19)3-45-51(40,41)49-52(42,43)48-50(38,39)44-2-6-10(32)12(34)18(46-6)30-4-24-8-14(30)25-20(22)27-16(8)36/h4-7,10-13,18-19,32-35H,2-3H2,1H3,(H8-,22,23,25,26,27,28,36,37,38,39,40,41,42,43)/p+1/t6-,7-,10-,11-,12-,13-,18-,19-/m1/s1

> <OPENEYE_INCHIKEY>
FHHZHGZBHYYWTG-INFSMZHSSA-O

> <FORMULA>
C21H30N10O18P3+

$$$$
