5LG
  -OEChem-02242320013D

 76 78  0     1  0  0  0  0  0999 V2000
    2.6870    1.1540    0.3730 C   0  0  0  0  0  0  0  0  0  0  0  0
    2.1540    0.8080    1.4080 O   0  0  0  0  0  0  0  0  0  0  0  0
    4.0210    1.0440    0.2320 O   0  0  0  0  0  0  0  0  0  0  0  0
    4.7600    0.5020    1.3590 C   0  0  0  0  0  0  0  0  0  0  0  0
    6.2270    0.4540    1.0210 C   0  0  0  0  0  0  0  0  0  0  0  0
    7.0390    1.5360    1.3060 C   0  0  0  0  0  0  0  0  0  0  0  0
    8.3850    1.4920    0.9960 C   0  0  0  0  0  0  0  0  0  0  0  0
    8.9200    0.3650    0.4000 C   0  0  0  0  0  0  0  0  0  0  0  0
    8.1090   -0.7180    0.1160 C   0  0  0  0  0  0  0  0  0  0  0  0
    6.7640   -0.6750    0.4300 C   0  0  0  0  0  0  0  0  0  0  0  0
   -5.7160    1.3830   -0.0160 N   0  0  0  0  0  0  0  0  0  0  0  0
   -5.0080    2.3520    0.8240 C   0  0  0  0  0  0  0  0  0  0  0  0
   -4.7690    3.6350    0.0260 C   0  0  0  0  0  0  0  0  0  0  0  0
   -3.3320    3.7970   -0.2140 N   0  0  0  0  0  0  0  0  0  0  0  0
   -1.2190    0.4170   -1.4270 O   0  0  0  0  0  0  0  0  0  0  0  0
   -0.1590    0.4440   -0.8390 C   0  0  0  0  0  0  0  0  0  0  0  0
    0.4880    1.7590   -0.4870 C   0  0  2  0  0  0  0  0  0  0  0  0
   -0.0370    2.8520   -1.4200 C   0  0  0  0  0  0  0  0  0  0  0  0
   -1.2890    3.4540   -0.8380 C   0  0  0  0  0  0  0  0  0  0  0  0
   -2.5270    2.9060   -0.8360 C   0  0  0  0  0  0  0  0  0  0  0  0
   -2.6200    4.8110    0.1340 N   0  0  0  0  0  0  0  0  0  0  0  0
   -1.3960    4.6370   -0.2220 N   0  0  0  0  0  0  0  0  0  0  0  0
    1.9410    1.6440   -0.6370 N   0  0  0  0  0  0  0  0  0  0  0  0
   -2.5280   -2.6000   -0.0160 N   0  0  0  0  0  0  0  0  0  0  0  0
   -3.4190   -2.8270    1.1480 C   0  0  1  0  0  0  0  0  0  0  0  0
   -4.7470   -2.1120    0.8900 C   0  0  0  0  0  0  0  0  0  0  0  0
   -4.5110   -0.6010    0.8400 C   0  0  0  0  0  0  0  0  0  0  0  0
   -5.7580    0.0840    0.3410 C   0  0  0  0  0  0  0  0  0  0  0  0
   -6.7980   -0.5340    0.2620 O   0  0  0  0  0  0  0  0  0  0  0  0
   -3.6680   -4.3270    1.3200 C   0  0  0  0  0  0  0  0  0  0  0  0
   -2.4450   -4.9750    1.6760 O   0  0  0  0  0  0  0  0  0  0  0  0
    0.4670   -0.7150   -0.4860 N   0  0  0  0  0  0  0  0  0  0  0  0
   -0.2520   -1.9660   -0.8050 C   0  0  2  0  0  0  0  0  0  0  0  0
   -1.2390   -2.2740    0.3080 C   0  0  0  0  0  0  0  0  0  0  0  0
   -0.8880   -2.2170    1.4680 O   0  0  0  0  0  0  0  0  0  0  0  0
    0.7490   -3.1160   -0.9300 C   0  0  0  0  0  0  0  0  0  0  0  0
    1.6690   -2.8630   -2.1270 C   0  0  0  0  0  0  0  0  0  0  0  0
    2.7480   -3.9470   -2.1790 C   0  0  0  0  0  0  0  0  0  0  0  0
    0.8470   -2.8990   -3.4170 C   0  0  0  0  0  0  0  0  0  0  0  0
    4.6090    1.1370    2.2320 H   0  0  0  0  0  0  0  0  0  0  0  0
    4.4040   -0.5050    1.5770 H   0  0  0  0  0  0  0  0  0  0  0  0
    6.6200    2.4170    1.7710 H   0  0  0  0  0  0  0  0  0  0  0  0
    9.0180    2.3380    1.2180 H   0  0  0  0  0  0  0  0  0  0  0  0
    9.9720    0.3310    0.1570 H   0  0  0  0  0  0  0  0  0  0  0  0
    8.5280   -1.5980   -0.3500 H   0  0  0  0  0  0  0  0  0  0  0  0
    6.1300   -1.5210    0.2080 H   0  0  0  0  0  0  0  0  0  0  0  0
   -5.6100    2.5770    1.7050 H   0  0  0  0  0  0  0  0  0  0  0  0
   -4.0510    1.9330    1.1350 H   0  0  0  0  0  0  0  0  0  0  0  0
   -5.2920    3.5730   -0.9280 H   0  0  0  0  0  0  0  0  0  0  0  0
   -5.1420    4.4900    0.5910 H   0  0  0  0  0  0  0  0  0  0  0  0
    0.2490    2.0170    0.5450 H   0  0  0  0  0  0  0  0  0  0  0  0
    0.7210    3.6270   -1.5330 H   0  0  0  0  0  0  0  0  0  0  0  0
   -0.2610    2.4190   -2.3950 H   0  0  0  0  0  0  0  0  0  0  0  0
   -2.8140    1.9500   -1.2490 H   0  0  0  0  0  0  0  0  0  0  0  0
   -6.1580    1.6770   -0.8280 H   0  0  0  0  0  0  0  0  0  0  0  0
    2.3660    1.9210   -1.4640 H   0  0  0  0  0  0  0  0  0  0  0  0
   -2.8350   -2.6760   -0.9330 H   0  0  0  0  0  0  0  0  0  0  0  0
   -2.9550   -2.4240    2.0480 H   0  0  0  0  0  0  0  0  0  0  0  0
   -5.1610   -2.4470   -0.0620 H   0  0  0  0  0  0  0  0  0  0  0  0
   -5.4470   -2.3440    1.6920 H   0  0  0  0  0  0  0  0  0  0  0  0
   -4.2710   -0.2380    1.8390 H   0  0  0  0  0  0  0  0  0  0  0  0
   -3.6820   -0.3840    0.1660 H   0  0  0  0  0  0  0  0  0  0  0  0
   -4.4060   -4.4850    2.1070 H   0  0  0  0  0  0  0  0  0  0  0  0
   -4.0410   -4.7430    0.3840 H   0  0  0  0  0  0  0  0  0  0  0  0
   -2.5280   -5.9300    1.8020 H   0  0  0  0  0  0  0  0  0  0  0  0
    1.3340   -0.7170   -0.0520 H   0  0  0  0  0  0  0  0  0  0  0  0
   -0.7930   -1.8480   -1.7430 H   0  0  0  0  0  0  0  0  0  0  0  0
    1.3460   -3.1780   -0.0200 H   0  0  0  0  0  0  0  0  0  0  0  0
    0.2110   -4.0520   -1.0770 H   0  0  0  0  0  0  0  0  0  0  0  0
    2.1400   -1.8860   -2.0230 H   0  0  0  0  0  0  0  0  0  0  0  0
    2.2760   -4.9240   -2.2820 H   0  0  0  0  0  0  0  0  0  0  0  0
    3.4020   -3.7670   -3.0310 H   0  0  0  0  0  0  0  0  0  0  0  0
    3.3330   -3.9210   -1.2590 H   0  0  0  0  0  0  0  0  0  0  0  0
    0.0790   -2.1280   -3.3800 H   0  0  0  0  0  0  0  0  0  0  0  0
    1.5020   -2.7200   -4.2700 H   0  0  0  0  0  0  0  0  0  0  0  0
    0.3760   -3.8770   -3.5210 H   0  0  0  0  0  0  0  0  0  0  0  0
 30 31  1  0  0  0  0
 25 30  1  0  0  0  0
 28 29  2  0  0  0  0
 25 26  1  0  0  0  0
 24 25  1  0  0  0  0
 26 27  1  0  0  0  0
 27 28  1  0  0  0  0
 11 28  1  0  0  0  0
 24 34  1  0  0  0  0
 12 13  1  0  0  0  0
 13 14  1  0  0  0  0
 11 12  1  0  0  0  0
 34 35  2  0  0  0  0
 33 34  1  0  0  0  0
 14 20  1  0  0  0  0
 14 21  1  0  0  0  0
 33 36  1  0  0  0  0
 36 37  1  0  0  0  0
 19 20  2  0  0  0  0
 32 33  1  0  0  0  0
 37 38  1  0  0  0  0
 21 22  2  0  0  0  0
 37 39  1  0  0  0  0
 16 32  1  0  0  0  0
 15 16  2  0  0  0  0
 19 22  1  0  0  0  0
 18 19  1  0  0  0  0
 16 17  1  0  0  0  0
 17 18  1  0  0  0  0
 17 23  1  0  0  0  0
  1 23  1  0  0  0  0
  1  2  2  0  0  0  0
  1  3  1  0  0  0  0
 11 55  1  0  0  0  0
 12 47  1  0  0  0  0
 12 48  1  0  0  0  0
 13 50  1  0  0  0  0
 13 49  1  0  0  0  0
 17 51  1  0  0  0  0
 18 52  1  0  0  0  0
 18 53  1  0  0  0  0
 20 54  1  0  0  0  0
 23 56  1  0  0  0  0
 32 66  1  0  0  0  0
 33 67  1  0  0  0  0
 36 68  1  0  0  0  0
 36 69  1  0  0  0  0
 37 70  1  0  0  0  0
 38 71  1  0  0  0  0
 38 72  1  0  0  0  0
 38 73  1  0  0  0  0
 39 74  1  0  0  0  0
 39 75  1  0  0  0  0
 39 76  1  0  0  0  0
 24 57  1  0  0  0  0
 25 58  1  0  0  0  0
 26 59  1  0  0  0  0
 26 60  1  0  0  0  0
 27 61  1  0  0  0  0
 27 62  1  0  0  0  0
 30 63  1  0  0  0  0
 30 64  1  0  0  0  0
 31 65  1  0  0  0  0
  3  4  1  0  0  0  0
  4  5  1  0  0  0  0
  5  6  2  0  0  0  0
  6  7  1  0  0  0  0
  7  8  2  0  0  0  0
  8  9  1  0  0  0  0
  9 10  2  0  0  0  0
  5 10  1  0  0  0  0
  4 40  1  0  0  0  0
  4 41  1  0  0  0  0
  6 42  1  0  0  0  0
  7 43  1  0  0  0  0
  8 44  1  0  0  0  0
  9 45  1  0  0  0  0
 10 46  1  0  0  0  0
M  END
> <OPENEYE_ISO_SMILES>
CC(C)C[C@H]1C(=O)N[C@@H](CCC(=O)NCCn2cc(nn2)C[C@@H](C(=O)N1)NC(=O)OCc3ccccc3)CO

> <OPENEYE_INCHI>
InChI=1S/C26H37N7O6/c1-17(2)12-21-24(36)28-19(15-34)8-9-23(35)27-10-11-33-14-20(31-32-33)13-22(25(37)29-21)30-26(38)39-16-18-6-4-3-5-7-18/h3-7,14,17,19,21-22,34H,8-13,15-16H2,1-2H3,(H,27,35)(H,28,36)(H,29,37)(H,30,38)/t19-,21-,22-/m0/s1

> <OPENEYE_INCHIKEY>
SZXOIWBJCNDQNX-BVSLBCMMSA-N

> <FORMULA>
C26H37N7O6

$$$$
