@<TRIPOS>MOLECULE
/home/pku/3cl/gett_pdb/7LKX/7LKX_mol2/ligand/7LKX_Y51.pdb
 30 32 0 0 0
SMALL
GASTEIGER

@<TRIPOS>ATOM
      1  C21        8.2400   28.6540   24.4260 C.3   401  Y51401      0.0001
      2  C14        8.8540   18.3760   28.5710 C.3   401  Y51401      0.2036
      3  C13        6.4180   21.8360   27.2570 C.3   401  Y51401      0.0326
      4  C12        5.4410   22.6310   26.4080 C.3   401  Y51401      0.1156
      5  C16        8.8800   26.3900   24.9880 C.3   401  Y51401      0.0439
      6  C15        9.0470   25.7290   26.3390 C.3   401  Y51401      0.2100
      7  C1        10.5780   23.9120   26.3540 C.2   401  Y51401      0.4215
      8  C10        7.2350   21.0420   26.2430 C.3   401  Y51401      0.0818
      9  C11        6.3420   21.0020   25.0170 C.2   401  Y51401      0.2410
     10  C17       10.0420   27.3580   24.5980 C.3   401  Y51401      0.0036
     11  C18        9.3530   28.1620   23.4930 C.3   401  Y51401      0.0001
     12  C19       10.1290   28.3970   25.6730 C.3   401  Y51401      0.0001
     13  C2        11.6300   22.0900   27.5520 C.3   401  Y51401      0.1761
     14  C20        9.0690   29.1760   25.5610 C.3   401  Y51401      0.0000
     15  C22        7.6450   27.3030   24.9050 C.3   401  Y51401      0.0037
     16  C3        12.7800   21.8570   28.5290 C.3   401  Y51401      0.0312
     17  C4        14.1530   22.3140   28.0380 C.3   401  Y51401      0.0022
     18  C5        15.2170   22.0730   29.1020 C.3   401  Y51401      0.0001
     19  C6        14.5300   21.6210   26.7400 C.3   401  Y51401      0.0001
     20  C7        10.3220   21.5360   28.1230 C.2   401  Y51401      0.2614
     21  C8         8.6160   19.7550   27.9740 C.3   401  Y51401      0.1287
     22  C9         7.6890   19.6800   26.7580 C.3   401  Y51401      0.0335
     23  N1        11.5220   23.5000   27.2160 N.am  401  Y51401     -0.1611
     24  N2         9.8890   20.3810   27.6090 N.am  401  Y51401     -0.2030
     25  N3         5.2990   21.7880   25.2280 N.am  401  Y51401     -0.2054
     26  O1         9.9180   23.1720   25.6640 O.2   401  Y51401     -0.2246
     27  O2         6.5660   20.3660   23.9680 O.2   401  Y51401     -0.2734
     28  O3         9.5930   18.4400   29.7840 O.3   401  Y51401     -0.2185
     29  O4         9.7130   22.1530   28.9940 O.2   401  Y51401     -0.2715
     30  O5        10.4050   25.2380   26.4570 O.3   401  Y51401     -0.4335
@<TRIPOS>BOND
     1    11     1    1
     2    11    10    1
     3    27     9    2
     4     1    15    1
     5     1    14    1
     6    10     5    1
     7    10    12    1
     8    15     5    1
     9     5     6    1
    10     9    25   am
    11     9     8    1
    12    25     4    1
    13    14    12    1
    14    26     7    2
    15     8    22    1
    16     8     3    1
    17     6    30    1
    18     7    30    1
    19     7    23   am
    20     4     3    1
    21    19    17    1
    22    22    21    1
    23    23    13    1
    24    13    20    1
    25    13    16    1
    26    24    21    1
    27    24    20   am
    28    21     2    1
    29    17    16    1
    30    17    18    1
    31    20    29    2
    32     2    28    1
