@<TRIPOS>MOLECULE
/home/pku/3cl/gett_pdb/5SSB/5SSB_mol2/ligand/5SSB_RMU.pdb
 31 32 0 0 0
SMALL
GASTEIGER

@<TRIPOS>ATOM
      1  C16      -43.8630  -27.2710    0.5950 C.ar  201  RMU201      0.0903
      2  C17      -42.9870  -26.1290    0.0850 C.1   201  RMU201      0.1022
      3  C14      -45.2310  -27.3130    0.3590 C.ar  201  RMU201      0.1466
      4  C12      -45.4690  -29.3100    1.4980 C.ar  201  RMU201      0.0517
      5  C11      -44.1050  -29.3160    1.7660 C.ar  201  RMU201      0.0674
      6  C20      -43.7360  -33.1750   -2.7140 C.2   201  RMU201      0.2769
      7  C19      -43.2890  -28.3040    1.3160 C.ar  201  RMU201     -0.0175
      8  C01      -46.3990  -34.0960    1.4860 C.3   201  RMU201     -0.0044
      9  C02      -45.3660  -33.4960    0.5440 C.ar  201  RMU201      0.1294
     10  C04      -44.1870  -33.0550   -1.2610 C.ar  201  RMU201      0.1911
     11  C05      -43.7000  -32.2300   -0.2460 C.ar  201  RMU201      0.0158
     12  C06      -44.4620  -32.5180    0.8850 C.ar  201  RMU201      0.1496
     13  N10      -43.5020  -30.3830    2.5150 N.pl3 201  RMU201     -0.2146
     14  N13      -45.9790  -28.3080    0.8070 N.ar  201  RMU201     -0.2404
     15  N18      -42.3180  -25.2950   -0.2850 N.1   201  RMU201     -0.1908
     16  N22      -42.4010  -32.7880   -3.1300 N.am  201  RMU201     -0.3228
     17  O03      -45.1810  -33.7910   -0.7450 O.2   201  RMU201     -0.4533
     18  O08      -45.6740  -31.6930    3.1980 O.2   201  RMU201     -0.1499
     19  O09      -43.7110  -32.7970    3.4500 O.2   201  RMU201     -0.1499
     20  O21      -44.4880  -33.6160   -3.5180 O.2   201  RMU201     -0.2671
     21  S07      -44.3630  -31.8330    2.5610 S.O2  201  RMU201      0.0757
     22 CL15      -46.0040  -25.9930   -0.5640 Cl    201  RMU201     -0.0607
     23 H121      -46.1200  -30.1200    1.8490 H     201  RMU201      0.0849
     24 H191      -42.2270  -28.3410    1.5340 H     201  RMU201      0.0651
     25 H011      -46.6880  -35.0990    1.1340 H     201  RMU201      0.0308
     26 H012      -47.2350  -33.4810    1.4590 H     201  RMU201      0.0308
     27 H013      -46.0370  -34.1090    2.5340 H     201  RMU201      0.0308
     28 H051      -42.9050  -31.4850   -0.3250 H     201  RMU201      0.0677
     29 H101      -42.6180  -30.2710    2.9830 H     201  RMU201      0.1737
     30 H221      -42.1450  -32.8680   -4.0950 H     201  RMU201      0.1453
     31 H222      -41.7530  -32.4060   -2.4670 H     201  RMU201      0.1453
@<TRIPOS>BOND
     1    30    16    1
     2    20     6    2
     3    16     6   am
     4    16    31    1
     5     6    10    1
     6    10    17   ar
     7    10    11   ar
     8    17     9   ar
     9    22     3    1
    10    28    11    1
    11    15     2    3
    12    11    12   ar
    13     2     1    1
    14     3     1   ar
    15     3    14   ar
    16     9    12   ar
    17     9     8    1
    18     1     7   ar
    19    14     4   ar
    20    12    21    1
    21    25     8    1
    22     7    24    1
    23     7     5   ar
    24    26     8    1
    25     8    27    1
    26     4     5   ar
    27     4    23    1
    28     5    13    1
    29    13    21    1
    30    13    29    1
    31    21    18    2
    32    21    19    2
