T6J
  -OEChem-02242320043D

 24 25  0     0  0  0  0  0  0999 V2000
   -0.6160    1.1320   -0.5350 N   0  0  0  0  0  0  0  0  0  0  0  0
   -3.0110   -1.4120    0.0790 C   0  0  0  0  0  0  0  0  0  0  0  0
   -4.1580   -0.7500    0.4140 C   0  0  0  0  0  0  0  0  0  0  0  0
   -4.1890    0.6370    0.4500 C   0  0  0  0  0  0  0  0  0  0  0  0
   -3.0580    1.3690    0.1610 C   0  0  0  0  0  0  0  0  0  0  0  0
   -1.8850    0.7140   -0.1870 C   0  0  0  0  0  0  0  0  0  0  0  0
   -0.5960   -1.0490   -0.5920 N   0  0  0  0  0  0  0  0  0  0  0  0
    4.2910   -0.0140   -0.4350 C   0  0  0  0  0  0  0  0  0  0  0  0
    2.4430    1.1920    1.0080 O   0  0  0  0  0  0  0  0  0  0  0  0
    1.5750    0.0180   -1.1880 C   0  0  0  0  0  0  0  0  0  0  0  0
    0.1270    0.0180   -0.7730 C   0  0  0  0  0  0  0  0  0  0  0  0
   -1.8560   -0.6910   -0.2320 C   0  0  0  0  0  0  0  0  0  0  0  0
    2.4280   -1.2590    0.9550 O   0  0  0  0  0  0  0  0  0  0  0  0
    2.6280   -0.0200    0.2890 S   0  0  0  0  0  0  0  0  0  0  0  0
   -0.3120    2.0510   -0.6010 H   0  0  0  0  0  0  0  0  0  0  0  0
   -2.9980   -2.4920    0.0540 H   0  0  0  0  0  0  0  0  0  0  0  0
   -5.0490   -1.3110    0.6530 H   0  0  0  0  0  0  0  0  0  0  0  0
   -5.1040    1.1460    0.7170 H   0  0  0  0  0  0  0  0  0  0  0  0
   -3.0880    2.4490    0.1900 H   0  0  0  0  0  0  0  0  0  0  0  0
    5.0340   -0.0360    0.3610 H   0  0  0  0  0  0  0  0  0  0  0  0
    4.4130   -0.8910   -1.0710 H   0  0  0  0  0  0  0  0  0  0  0  0
    4.4240    0.8880   -1.0320 H   0  0  0  0  0  0  0  0  0  0  0  0
    1.7780   -0.8600   -1.8010 H   0  0  0  0  0  0  0  0  0  0  0  0
    1.7880    0.9190   -1.7630 H   0  0  0  0  0  0  0  0  0  0  0  0
  8 14  1  0  0  0  0
  9 14  2  0  0  0  0
 13 14  2  0  0  0  0
 10 14  1  0  0  0  0
 10 11  1  0  0  0  0
  7 11  2  0  0  0  0
  7 12  1  0  0  0  0
  2 12  1  0  0  0  0
  2  3  2  0  0  0  0
  3  4  1  0  0  0  0
  4  5  2  0  0  0  0
  5  6  1  0  0  0  0
  6 12  2  0  0  0  0
  1  6  1  0  0  0  0
  1 11  1  0  0  0  0
  1 15  1  0  0  0  0
  2 16  1  0  0  0  0
  3 17  1  0  0  0  0
  4 18  1  0  0  0  0
  5 19  1  0  0  0  0
  8 20  1  0  0  0  0
  8 21  1  0  0  0  0
  8 22  1  0  0  0  0
 10 23  1  0  0  0  0
 10 24  1  0  0  0  0
M  END
> <OPENEYE_ISO_SMILES>
CS(=O)(=O)Cc1[nH]c2ccccc2n1

> <OPENEYE_INCHI>
InChI=1S/C9H10N2O2S/c1-14(12,13)6-9-10-7-4-2-3-5-8(7)11-9/h2-5H,6H2,1H3,(H,10,11)

> <OPENEYE_INCHIKEY>
WCWTYTQSZZWNEW-UHFFFAOYSA-N

> <FORMULA>
C9H10N2O2S

$$$$
