T6Y
  -OEChem-02242320043D

 31 32  0     0  0  0  0  0  0999 V2000
   -0.9000   -1.0430   -0.0380 N   0  0  0  0  0  0  0  0  0  0  0  0
    0.2140   -1.6880   -0.7460 C   0  0  0  0  0  0  0  0  0  0  0  0
    1.5180   -1.1000   -0.2700 C   0  0  0  0  0  0  0  0  0  0  0  0
    2.2400   -1.5590    0.7530 C   0  0  0  0  0  0  0  0  0  0  0  0
    3.4060   -0.8560    1.0050 C   0  0  0  0  0  0  0  0  0  0  0  0
    3.6300    0.1740    0.1860 C   0  0  0  0  0  0  0  0  0  0  0  0
   -2.0490    1.0530    0.4930 C   0  0  0  0  0  0  0  0  0  0  0  0
   -3.3060    0.2970    0.3870 N   0  0  0  0  0  0  0  0  0  0  0  0
   -5.7430    0.1260    0.0010 C   0  0  0  0  0  0  0  0  0  0  0  0
   -4.4840    2.1220   -0.0660 O   0  0  0  0  0  0  0  0  0  0  0  0
   -4.4670    0.9210    0.1050 C   0  0  0  0  0  0  0  0  0  0  0  0
   -3.2620   -1.1580    0.5970 C   0  0  0  0  0  0  0  0  0  0  0  0
   -2.1640   -1.7460   -0.2950 C   0  0  0  0  0  0  0  0  0  0  0  0
   -0.9980    0.3790   -0.3950 C   0  0  0  0  0  0  0  0  0  0  0  0
    2.3230    0.2900   -0.9860 S   0  0  0  0  0  0  0  0  0  0  0  0
    5.0040    1.2330    0.2610 Cl  0  0  0  0  0  0  0  0  0  0  0  0
    0.2030   -2.7590   -0.5420 H   0  0  0  0  0  0  0  0  0  0  0  0
    0.1090   -1.5200   -1.8170 H   0  0  0  0  0  0  0  0  0  0  0  0
    1.9380   -2.4130    1.3400 H   0  0  0  0  0  0  0  0  0  0  0  0
    4.0830   -1.1200    1.8050 H   0  0  0  0  0  0  0  0  0  0  0  0
   -2.2090    2.0780    0.1570 H   0  0  0  0  0  0  0  0  0  0  0  0
   -1.7090    1.0560    1.5290 H   0  0  0  0  0  0  0  0  0  0  0  0
   -5.9370   -0.3750    0.9490 H   0  0  0  0  0  0  0  0  0  0  0  0
   -6.5700    0.7970   -0.2320 H   0  0  0  0  0  0  0  0  0  0  0  0
   -5.6450   -0.6170   -0.7900 H   0  0  0  0  0  0  0  0  0  0  0  0
   -3.0380   -1.3700    1.6420 H   0  0  0  0  0  0  0  0  0  0  0  0
   -4.2260   -1.5950    0.3330 H   0  0  0  0  0  0  0  0  0  0  0  0
   -2.4420   -1.6230   -1.3420 H   0  0  0  0  0  0  0  0  0  0  0  0
   -2.0430   -2.8060   -0.0720 H   0  0  0  0  0  0  0  0  0  0  0  0
   -0.0320    0.8590   -0.2450 H   0  0  0  0  0  0  0  0  0  0  0  0
   -1.2920    0.4710   -1.4410 H   0  0  0  0  0  0  0  0  0  0  0  0
  9 11  1  0  0  0  0
 10 11  2  0  0  0  0
  8 11  1  0  0  0  0
  8 12  1  0  0  0  0
 12 13  1  0  0  0  0
  1 13  1  0  0  0  0
  1  2  1  0  0  0  0
  2  3  1  0  0  0  0
  3  4  2  0  0  0  0
  4  5  1  0  0  0  0
  5  6  2  0  0  0  0
  6 16  1  0  0  0  0
  6 15  1  0  0  0  0
  3 15  1  0  0  0  0
  1 14  1  0  0  0  0
  7 14  1  0  0  0  0
  7  8  1  0  0  0  0
  2 17  1  0  0  0  0
  2 18  1  0  0  0  0
  4 19  1  0  0  0  0
  5 20  1  0  0  0  0
  7 21  1  0  0  0  0
  7 22  1  0  0  0  0
  9 23  1  0  0  0  0
  9 24  1  0  0  0  0
  9 25  1  0  0  0  0
 12 26  1  0  0  0  0
 12 27  1  0  0  0  0
 13 28  1  0  0  0  0
 13 29  1  0  0  0  0
 14 30  1  0  0  0  0
 14 31  1  0  0  0  0
M  END
> <OPENEYE_ISO_SMILES>
CC(=O)N1CCN(CC1)Cc2ccc(s2)Cl

> <OPENEYE_INCHI>
InChI=1S/C11H15ClN2OS/c1-9(15)14-6-4-13(5-7-14)8-10-2-3-11(12)16-10/h2-3H,4-8H2,1H3

> <OPENEYE_INCHIKEY>
KIKCPJKIAGFHCO-UHFFFAOYSA-N

> <FORMULA>
C11H15ClN2OS

$$$$
