@<TRIPOS>MOLECULE
/home/pku/3cl/gett_pdb/8E6C/8E6C_mol2/ligand/8E6C_UTU.pdb
 34 35 0 0 0
SMALL
GASTEIGER

@<TRIPOS>ATOM
      1  N1       -21.4020   24.0820    1.6420 N.am  401  UTU401     -0.1611
      2  C2       -21.1260   25.5010    1.8040 C.3   401  UTU401      0.1761
      3  O2       -19.4070   24.1920    8.0060 O.2   401  UTU401     -0.2734
      4  N3       -21.4610   23.1770    8.0240 N.am  401  UTU401     -0.2054
      5  C4       -20.7390   25.9910   -0.7000 C.3   401  UTU401      0.0022
      6  C5       -19.2560   26.2330   -0.4660 C.3   401  UTU401      0.0001
      7  C6       -21.2340   26.8290   -1.8690 C.3   401  UTU401      0.0001
      8  N2       -20.9140   26.5350    3.9990 N.am  401  UTU401     -0.2030
      9  O4       -22.9840   26.1390    3.1850 O.2   401  UTU401     -0.2715
     10  C7       -21.7620   26.0910    3.0650 C.2   401  UTU401      0.2614
     11  C8       -21.3230   27.1370    5.2690 C.3   401  UTU401      0.1287
     12  C1       -21.0560   23.2200    2.6150 C.2   401  UTU401      0.4215
     13  C10      -21.2370   24.9200    6.5280 C.3   401  UTU401      0.0818
     14  C11      -20.5760   24.0750    7.6010 C.2   401  UTU401      0.2410
     15  C12      -22.7660   23.3100    7.3860 C.3   401  UTU401      0.1156
     16  C13      -22.7130   24.7260    6.8380 C.3   401  UTU401      0.0326
     17  C14      -20.8940   28.5910    5.3190 C.3   401  UTU401      0.2036
     18  C15      -21.9430   21.7390    0.9680 C.3   401  UTU401      0.2202
     19  C16      -21.8740   20.2460    0.7940 C.3   401  UTU401      0.0837
     20  C17      -22.4200   19.5740    2.0450 C.3   401  UTU401      0.0149
     21  C18      -20.4110   19.8860    0.5840 C.3   401  UTU401      0.0149
     22  C19      -23.0020   17.8780   -0.5150 C.ar  401  UTU401      0.0275
     23  C20      -24.2330   17.2810   -0.7680 C.ar  401  UTU401      0.0063
     24  C21      -24.3810   15.9090   -0.6540 C.ar  401  UTU401      0.0028
     25  C22      -23.3200   15.1040   -0.2940 C.ar  401  UTU401      0.0297
     26  C23      -22.1180   15.7070   -0.0520 C.ar  401  UTU401      0.1406
     27  C24      -21.9300   17.0670   -0.1600 C.ar  401  UTU401      0.0358
     28  C3       -21.5430   26.2910    0.5640 C.3   401  UTU401      0.0312
     29  C9       -20.7290   26.3580    6.4410 C.3   401  UTU401      0.0335
     30  F1       -21.0560   14.9360    0.3040 F     401  UTU401     -0.2042
     31  O1       -20.5970   23.5410    3.6870 O.2   401  UTU401     -0.2246
     32  O3       -21.5820   29.3310    4.3270 O.3   401  UTU401     -0.2185
     33  O5       -21.2490   21.9510    2.2250 O.3   401  UTU401     -0.4326
     34  S1       -22.8360   19.6310   -0.6720 S.3   401  UTU401     -0.1116
@<TRIPOS>BOND
     1     7     5    1
     2    23    24   ar
     3    23    22   ar
     4     5     6    1
     5     5    28    1
     6    34    22    1
     7    34    19    1
     8    24    25   ar
     9    22    27   ar
    10    25    26   ar
    11    27    26   ar
    12    26    30    1
    13    28     2    1
    14    21    19    1
    15    19    18    1
    16    19    20    1
    17    18    33    1
    18     1     2    1
    19     1    12   am
    20     2    10    1
    21    33    12    1
    22    12    31    2
    23    10     9    2
    24    10     8   am
    25     8    11    1
    26    32    17    1
    27    11    17    1
    28    11    29    1
    29    29    13    1
    30    13    16    1
    31    13    14    1
    32    16    15    1
    33    15     4    1
    34    14     3    2
    35    14     4   am
