@<TRIPOS>MOLECULE
/home/pku/3cl/gett_pdb/5RMI/5RMI_mol2/ligand/5RMI_STV.pdb
 16 17 0 0 0
SMALL
GASTEIGER

@<TRIPOS>ATOM
      1  C4        -6.2170    8.3840  -44.3580 C.ar  701  STV701      0.0005
      2  C5        -7.0540    8.0760  -43.2830 C.ar  701  STV701      0.0399
      3  C6        -7.9050    7.0280  -43.4550 C.ar  701  STV701      0.1764
      4  C7        -7.9410    6.3090  -44.6260 C.ar  701  STV701      0.1762
      5  C8        -7.1270    6.6000  -45.6840 C.ar  701  STV701      0.0374
      6  N         -5.9790    8.8640  -47.6880 N.3   701  STV701     -0.0772
      7  C         -3.5880   11.6940  -49.4140 C.3   701  STV701      0.0289
      8  O         -5.2240   11.0070  -46.7260 O.2   701  STV701     -0.1561
      9  C1        -4.0680   10.3290  -48.9660 C.3   701  STV701      0.1706
     10  C2        -5.3170    8.0320  -46.6810 C.3   701  STV701      0.1415
     11  C3        -6.2390    7.6700  -45.5420 C.ar  701  STV701      0.0003
     12  C9        -9.3000    5.3170  -43.1660 C.3   701  STV701      0.4294
     13  O1        -6.5670   10.9750  -48.7890 O.2   701  STV701     -0.1561
     14  O2        -8.8870    5.3130  -44.5320 O.3   701  STV701     -0.4346
     15  O3        -8.8240    6.5210  -42.5660 O.3   701  STV701     -0.4346
     16  S         -5.5450   10.3960  -47.9780 S.O2  701  STV701      0.0576
@<TRIPOS>BOND
     1     7     9    1
     2     9    16    1
     3    13    16    2
     4    16     6    1
     5    16     8    2
     6     6    10    1
     7    10    11    1
     8     5    11   ar
     9     5     4   ar
    10    11     1   ar
    11     4    14    1
    12     4     3   ar
    13    14    12    1
    14     1     2   ar
    15     3     2   ar
    16     3    15    1
    17    12    15    1
