@<TRIPOS>MOLECULE
/home/pku/3cl/gett_pdb/5T6D/5T6D_mol2/ligand/5T6D_N38.pdb
 37 39 0 0 0
SMALL
GASTEIGER

@<TRIPOS>ATOM
      1  C01        2.9500    2.1030  -10.6790 C.3   201  N38201      0.2525
      2  C03        4.3070    4.1080  -10.9800 C.ar  201  N38201      0.1389
      3  C04        5.2800    3.6710  -10.0890 C.ar  201  N38201      0.0400
      4  C05        6.3810    4.4710   -9.8100 C.ar  201  N38201      0.0400
      5  C06        6.5040    5.7130  -10.4210 C.ar  201  N38201      0.1388
      6  C08        8.8120    5.8450   -9.9130 C.3   201  N38201      0.2073
      7  C09        9.9390    6.8790   -9.8720 C.3   201  N38201      0.0744
      8  C10        9.5950    7.9980   -8.8930 C.3   201  N38201      0.1744
      9  C13        9.7180   11.9370   -8.4760 C.3   201  N38201      0.1747
     10  C14        9.6080   12.7530   -7.2050 C.3   201  N38201      0.0287
     11  C15        8.6660   12.1530   -6.1620 C.3   201  N38201      0.0019
     12  C16        7.2500   12.1860   -6.7270 C.3   201  N38201      0.0001
     13  C17        6.2340   11.7270   -5.7030 C.3   201  N38201      0.0000
     14  C18        6.3750   12.5090   -4.3820 C.3   201  N38201      0.0000
     15  C19        7.7980   12.5430   -3.8260 C.3   201  N38201      0.0000
     16  C20        8.7870   13.0010   -4.8760 C.3   201  N38201      0.0001
     17  C21       10.5120   12.7690   -9.5040 C.2   201  N38201      0.2591
     18  C23       10.3900   14.3720  -11.4420 C.3   201  N38201      0.1287
     19  C24        9.9480   13.8120  -12.8050 C.3   201  N38201      0.0335
     20  C25       10.3140   12.3450  -13.1240 C.3   201  N38201      0.0818
     21  C26       10.0550   12.0780  -14.4090 C.2   201  N38201      0.2410
     22  C28       12.2190   11.0280  -13.7820 C.3   201  N38201      0.1156
     23  C29       11.9150   11.9530  -12.8710 C.3   201  N38201      0.0326
     24  C31       10.0560   15.8510  -11.3130 C.3   201  N38201      0.2036
     25  C36        5.5460    6.1430  -11.3210 C.ar  201  N38201      0.0400
     26  C37        4.4480    5.3430  -11.5960 C.ar  201  N38201      0.0400
     27  N12       10.3430   10.6870   -8.2110 N.3   201  N38201     -0.0742
     28  N22        9.7080   13.5660  -10.4050 N.am  201  N38201     -0.2033
     29  N27       11.2080   11.2050  -14.9360 N.am  201  N38201     -0.2054
     30  O02        3.1730    3.3380  -11.3150 O.3   201  N38201     -0.4714
     31  O07        7.6080    6.5310  -10.1510 O.3   201  N38201     -0.4754
     32  O30        9.1240   12.3930  -15.0550 O.2   201  N38201     -0.2734
     33  O32       10.6810   16.3540  -10.1400 O.3   201  N38201     -0.2185
     34  O33       11.7060   12.7870   -9.5510 O.2   201  N38201     -0.2718
     35  O34       11.7760    9.3410   -9.8610 O.2   201  N38201     -0.1561
     36  O35        9.7160   10.0390  -10.6190 O.2   201  N38201     -0.1561
     37  S11       10.3990    9.5150   -9.4450 S.O2  201  N38201      0.0578
@<TRIPOS>BOND
     1    32    21    2
     2    29    21   am
     3    29    22    1
     4    21    20    1
     5    22    23    1
     6    20    23    1
     7    20    19    1
     8    19    18    1
     9    26    25   ar
    10    26     2   ar
    11    18    24    1
    12    18    28    1
    13    25     5   ar
    14    30     2    1
    15    30     1    1
    16    24    33    1
    17     2     3   ar
    18    36    37    2
    19     5    31    1
    20     5     4   ar
    21    28    17   am
    22    31     6    1
    23     3     4   ar
    24     6     7    1
    25     7     8    1
    26    35    37    2
    27    34    17    2
    28    17     9    1
    29    37     8    1
    30    37    27    1
    31     9    27    1
    32     9    10    1
    33    10    11    1
    34    12    11    1
    35    12    13    1
    36    11    16    1
    37    13    14    1
    38    16    15    1
    39    14    15    1
