VWM
  -OEChem-02242320043D

 26 26  0     1  0  0  0  0  0999 V2000
   -1.3280   -0.0700    0.4300 N   0  0  0  0  0  0  0  0  0  0  0  0
   -0.4310   -2.1360   -0.5090 C   0  0  0  0  0  0  0  0  0  0  0  0
    0.9580   -1.6540   -0.0850 C   0  0  0  0  0  0  0  0  0  0  0  0
    1.0280   -0.1290   -0.2020 C   0  0  1  0  0  0  0  0  0  0  0  0
   -0.0090    0.4980    0.7350 C   0  0  0  0  0  0  0  0  0  0  0  0
    2.4060    0.3420    0.1830 C   0  0  0  0  0  0  0  0  0  0  0  0
   -3.7210    0.1340   -0.1630 C   0  0  0  0  0  0  0  0  0  0  0  0
   -2.3750    0.7330    0.1540 C   0  0  0  0  0  0  0  0  0  0  0  0
   -2.2330    1.9380    0.1610 O   0  0  0  0  0  0  0  0  0  0  0  0
   -1.4840   -1.5310    0.4250 C   0  0  0  0  0  0  0  0  0  0  0  0
    0.7500    0.2590   -1.5490 O   0  0  0  0  0  0  0  0  0  0  0  0
    3.0900   -0.3280    0.9210 O   0  0  0  0  0  0  0  0  0  0  0  0
    2.8750    1.5060   -0.2930 O   0  0  0  0  0  0  0  0  0  0  0  0
   -0.6300   -1.8210   -1.5330 H   0  0  0  0  0  0  0  0  0  0  0  0
   -0.4730   -3.2240   -0.4480 H   0  0  0  0  0  0  0  0  0  0  0  0
    1.1450   -1.9480    0.9470 H   0  0  0  0  0  0  0  0  0  0  0  0
    1.7110   -2.1020   -0.7330 H   0  0  0  0  0  0  0  0  0  0  0  0
   -0.0320    1.5780    0.5840 H   0  0  0  0  0  0  0  0  0  0  0  0
    0.2540    0.2780    1.7700 H   0  0  0  0  0  0  0  0  0  0  0  0
   -4.4370    0.9330   -0.3580 H   0  0  0  0  0  0  0  0  0  0  0  0
   -3.6370   -0.5010   -1.0450 H   0  0  0  0  0  0  0  0  0  0  0  0
   -4.0620   -0.4610    0.6830 H   0  0  0  0  0  0  0  0  0  0  0  0
   -1.3420   -1.9170    1.4350 H   0  0  0  0  0  0  0  0  0  0  0  0
   -2.4810   -1.7910    0.0690 H   0  0  0  0  0  0  0  0  0  0  0  0
    0.7770    1.2140   -1.6960 H   0  0  0  0  0  0  0  0  0  0  0  0
    3.7650    1.7660   -0.0180 H   0  0  0  0  0  0  0  0  0  0  0  0
  7  8  1  0  0  0  0
  8  9  2  0  0  0  0
  1  8  1  0  0  0  0
  1 10  1  0  0  0  0
  2 10  1  0  0  0  0
  2  3  1  0  0  0  0
  3  4  1  0  0  0  0
  4 11  1  0  0  0  0
  4  5  1  0  0  0  0
  4  6  1  0  0  0  0
  6 12  2  0  0  0  0
  6 13  1  0  0  0  0
  1  5  1  0  0  0  0
  2 14  1  0  0  0  0
  2 15  1  0  0  0  0
  3 16  1  0  0  0  0
  3 17  1  0  0  0  0
  5 18  1  0  0  0  0
  5 19  1  0  0  0  0
  7 20  1  0  0  0  0
  7 21  1  0  0  0  0
  7 22  1  0  0  0  0
 10 23  1  0  0  0  0
 10 24  1  0  0  0  0
 11 25  1  0  0  0  0
 13 26  1  0  0  0  0
M  END
> <OPENEYE_ISO_SMILES>
CC(=O)N1CCC[C@@](C1)(C(=O)O)O

> <OPENEYE_INCHI>
InChI=1S/C8H13NO4/c1-6(10)9-4-2-3-8(13,5-9)7(11)12/h13H,2-5H2,1H3,(H,11,12)/t8-/m1/s1

> <OPENEYE_INCHIKEY>
CKOGPKPHDCYLTR-MRVPVSSYSA-N

> <FORMULA>
C8H13NO4

$$$$
