@<TRIPOS>MOLECULE
/home/pku/3cl/gett_pdb/7S70/7S70_mol2/ligand/7S70_8H3.pdb
 43 45 0 0 0
SMALL
GASTEIGER

@<TRIPOS>ATOM
      1  C1       -14.5110  -10.5950  -16.5030 C.2   401  8H3401      0.2736
      2  C11      -10.2260  -17.7730  -18.1150 C.3   401  8H3401      0.1727
      3  C12      -10.5610  -16.4680  -17.4210 C.2   401  8H3401      0.2459
      4  C13       -8.7610  -15.2420  -18.7290 C.3   401  8H3401      0.0939
      5  C14       -9.9540  -14.2180  -16.8880 C.3   401  8H3401      0.1535
      6  C15      -11.2790  -13.5590  -17.1640 C.2   401  8H3401      0.2595
      7  C16       -8.1090  -13.8780  -18.4630 C.3   401  8H3401      0.0220
      8  C17      -13.3240  -12.7360  -16.1570 C.3   401  8H3401      0.1352
      9  C18       -7.3890  -13.7700  -17.1060 C.3   401  8H3401      0.0037
     10  C19      -14.1810  -13.5430  -15.1880 C.3   401  8H3401      0.0343
     11  C2       -14.3640   -8.4200  -20.5810 C.3   401  8H3401      0.0018
     12  C20      -14.2510  -14.9590  -15.7450 C.3   401  8H3401      0.0861
     13  C21      -15.2650  -14.9550  -16.8840 C.3   401  8H3401      0.0534
     14  C22      -16.2890  -16.0300  -16.5240 C.2   401  8H3401      0.0627
     15  C23       -6.9640  -15.1580  -16.6050 C.3   401  8H3401      0.0001
     16  C24      -14.7710  -15.9880  -14.7760 C.2   401  8H3401      0.2453
     17  C25       -6.3120  -12.6770  -17.0270 C.3   401  8H3401      0.0001
     18  C26      -10.6860  -19.2600  -20.0130 C.3   401  8H3401      0.0022
     19  C27       -6.7630  -22.0470  -15.7400 C.3   401  8H3401      0.0218
     20  C28       -5.8950  -19.7010  -15.9050 C.3   401  8H3401      0.0218
     21  C29       -6.2520  -21.1330  -17.9500 C.3   401  8H3401      0.0218
     22  C3       -15.0180   -8.8340  -18.1540 C.3   401  8H3401      0.1152
     23  C30      -11.3430  -18.4470  -18.9080 C.3   401  8H3401      0.0270
     24  C31      -12.2820  -17.4300  -19.5450 C.3   401  8H3401      0.0022
     25  C32      -12.1000  -19.3990  -17.9910 C.3   401  8H3401      0.0022
     26  C34       -8.8280  -13.2700  -17.2700 C.3   401  8H3401      0.0289
     27  C4       -14.1310   -8.0510  -19.1180 C.3   401  8H3401      0.0234
     28  C5       -13.2080   -7.9710  -21.4620 C.3   401  8H3401      0.0001
     29  C7        -6.7660  -20.7610  -16.5600 C.3   401  8H3401      0.0804
     30  C8       -13.3040  -11.2290  -15.8940 C.3   401  8H3401      0.2487
     31  C9        -8.5240  -19.2090  -17.3750 C.2   401  8H3401      0.3395
     32  N10       -9.7350  -18.7380  -17.1560 N.am  401  8H3401     -0.1796
     33  N13       -9.8000  -15.4050  -17.7110 N.am  401  8H3401     -0.2716
     34  N16      -11.9920  -13.2950  -16.0760 N.am  401  8H3401     -0.2027
     35  N2       -14.3710  -10.0620  -17.7220 N.am  401  8H3401     -0.2032
     36  N23      -15.8710  -16.5640  -15.2420 N.am  401  8H3401     -0.1826
     37  N8        -8.1090  -20.2050  -16.5880 N.am  401  8H3401     -0.1906
     38  O26      -14.2420  -16.2620  -13.7100 O.2   401  8H3401     -0.2730
     39  O29       -7.8800  -18.7230  -18.3000 O.2   401  8H3401     -0.2492
     40  O33      -11.4470  -16.3970  -16.5770 O.2   401  8H3401     -0.2730
     41  O38      -11.6640  -13.2930  -18.2950 O.2   401  8H3401     -0.2716
     42  O5       -15.5390  -10.6220  -15.8670 O.2   401  8H3401     -0.2705
     43  O9       -12.1350  -10.5660  -16.4150 O.3   401  8H3401     -0.2113
@<TRIPOS>BOND
     1    28    11    1
     2    11    27    1
     3    18    23    1
     4    24    23    1
     5    27    22    1
     6    23     2    1
     7    23    25    1
     8     4     7    1
     9     4    33    1
    10     7    26    1
    11     7     9    1
    12    39    31    2
    13    41     6    2
    14    22    35    1
    15     2     3    1
    16     2    32    1
    17    21    29    1
    18    35     1   am
    19    33     3   am
    20    33     5    1
    21     3    40    2
    22    31    32   am
    23    31    37   am
    24    26     9    1
    25    26     5    1
    26     6     5    1
    27     6    34   am
    28     9    17    1
    29     9    15    1
    30    13    14    1
    31    13    12    1
    32    37    29    1
    33    29    20    1
    34    29    19    1
    35    14    36    2
    36     1    30    1
    37     1    42    2
    38    43    30    1
    39     8    34    1
    40     8    30    1
    41     8    10    1
    42    12    10    1
    43    12    16    1
    44    36    16    1
    45    16    38    2
