BEZ
  -OEChem-02242320023D

 15 15  0     0  0  0  0  0  0999 V2000
    1.6470   -0.0770    0.0010 C   0  0  0  0  0  0  0  0  0  0  0  0
    2.2210   -1.1470    0.0010 O   0  0  0  0  0  0  0  0  0  0  0  0
    2.3570    1.0680   -0.0040 O   0  0  0  0  0  0  0  0  0  0  0  0
    0.1710   -0.0300    0.0000 C   0  0  0  0  0  0  0  0  0  0  0  0
   -0.5690   -1.2140   -0.0000 C   0  0  0  0  0  0  0  0  0  0  0  0
   -1.9470   -1.1630   -0.0010 C   0  0  0  0  0  0  0  0  0  0  0  0
   -2.5970    0.0580   -0.0020 C   0  0  0  0  0  0  0  0  0  0  0  0
   -1.8710    1.2360   -0.0020 C   0  0  0  0  0  0  0  0  0  0  0  0
   -0.4920    1.1990    0.0060 C   0  0  0  0  0  0  0  0  0  0  0  0
    3.3210    0.9870   -0.0070 H   0  0  0  0  0  0  0  0  0  0  0  0
   -0.0620   -2.1680   -0.0000 H   0  0  0  0  0  0  0  0  0  0  0  0
   -2.5200   -2.0780   -0.0010 H   0  0  0  0  0  0  0  0  0  0  0  0
   -3.6770    0.0930   -0.0030 H   0  0  0  0  0  0  0  0  0  0  0  0
   -2.3850    2.1860   -0.0020 H   0  0  0  0  0  0  0  0  0  0  0  0
    0.0740    2.1190    0.0110 H   0  0  0  0  0  0  0  0  0  0  0  0
  1  2  2  0  0  0  0
  1  3  1  0  0  0  0
  1  4  1  0  0  0  0
  3 10  1  0  0  0  0
  4  5  2  0  0  0  0
  4  9  1  0  0  0  0
  5  6  1  0  0  0  0
  5 11  1  0  0  0  0
  6  7  2  0  0  0  0
  6 12  1  0  0  0  0
  7  8  1  0  0  0  0
  7 13  1  0  0  0  0
  8  9  2  0  0  0  0
  8 14  1  0  0  0  0
  9 15  1  0  0  0  0
M  END
> <OPENEYE_ISO_SMILES>
c1ccc(cc1)C(=O)O

> <OPENEYE_INCHI>
InChI=1S/C7H6O2/c8-7(9)6-4-2-1-3-5-6/h1-5H,(H,8,9)

> <OPENEYE_INCHIKEY>
WPYMKLBDIGXBTP-UHFFFAOYSA-N

> <FORMULA>
C7H6O2

$$$$
