SEP
  -OEChem-02242320043D

 19 18  0     1  0  0  0  0  0999 V2000
    1.8550    0.4210    1.7510 N   0  0  0  0  0  0  0  0  0  0  0  0
    0.4010    0.6200    1.6870 C   0  0  1  0  0  0  0  0  0  0  0  0
   -0.1390    0.0150    0.3910 C   0  0  0  0  0  0  0  0  0  0  0  0
    0.4770    0.6550   -0.7270 O   0  0  0  0  0  0  0  0  0  0  0  0
   -0.2490   -0.0530    2.8670 C   0  0  0  0  0  0  0  0  0  0  0  0
    0.2540   -1.0380    3.3540 O   0  0  0  0  0  0  0  0  0  0  0  0
   -1.3890    0.4390    3.3770 O   0  0  0  0  0  0  0  0  0  0  0  0
   -0.1350   -0.0270   -2.0500 P   0  0  0  0  0  0  0  0  0  0  0  0
   -1.6010    0.1720   -2.0740 O   0  0  0  0  0  0  0  0  0  0  0  0
    0.5200    0.6490   -3.3560 O   0  0  0  0  0  0  0  0  0  0  0  0
    0.1910   -1.6030   -2.0410 O   0  0  0  0  0  0  0  0  0  0  0  0
    2.2370    0.7960    0.8950 H   0  0  0  0  0  0  0  0  0  0  0  0
    2.0130   -0.5740    1.7270 H   0  0  0  0  0  0  0  0  0  0  0  0
    0.1790    1.6870    1.7110 H   0  0  0  0  0  0  0  0  0  0  0  0
    0.0820   -1.0510    0.3670 H   0  0  0  0  0  0  0  0  0  0  0  0
   -1.2180    0.1630    0.3440 H   0  0  0  0  0  0  0  0  0  0  0  0
   -1.8070    0.0060    4.1340 H   0  0  0  0  0  0  0  0  0  0  0  0
    0.1270    0.2120   -4.1240 H   0  0  0  0  0  0  0  0  0  0  0  0
    1.1540   -1.6890   -2.0250 H   0  0  0  0  0  0  0  0  0  0  0  0
  1  2  1  0  0  0  0
  1 12  1  0  0  0  0
  1 13  1  0  0  0  0
  2  3  1  0  0  0  0
  2  5  1  0  0  0  0
  2 14  1  0  0  0  0
  3  4  1  0  0  0  0
  3 15  1  0  0  0  0
  3 16  1  0  0  0  0
  4  8  1  0  0  0  0
  5  6  2  0  0  0  0
  5  7  1  0  0  0  0
  7 17  1  0  0  0  0
  8  9  2  0  0  0  0
  8 10  1  0  0  0  0
  8 11  1  0  0  0  0
 10 18  1  0  0  0  0
 11 19  1  0  0  0  0
M  END
> <OPENEYE_ISO_SMILES>
C([C@@H](C(=O)O)N)OP(=O)(O)O

> <OPENEYE_INCHI>
InChI=1S/C3H8NO6P/c4-2(3(5)6)1-10-11(7,8)9/h2H,1,4H2,(H,5,6)(H2,7,8,9)/t2-/m0/s1

> <OPENEYE_INCHIKEY>
BZQFBWGGLXLEPQ-REOHCLBHSA-N

> <FORMULA>
C3H8NO6P

$$$$
