G7L
  -OEChem-02242320023D

 25 25  0     0  0  0  0  0  0999 V2000
    5.0800    0.0640    1.5460 C   0  0  0  0  0  0  0  0  0  0  0  0
    4.1390    0.7630    0.9180 C   0  0  0  0  0  0  0  0  0  0  0  0
    3.2270    0.0910   -0.0200 C   0  0  0  0  0  0  0  0  0  0  0  0
    2.1460    2.2390   -0.4150 C   0  0  0  0  0  0  0  0  0  0  0  0
    1.3640    0.1300   -1.5900 C   0  0  0  0  0  0  0  0  0  0  0  0
    0.1480   -0.3580   -0.8450 C   0  0  0  0  0  0  0  0  0  0  0  0
   -1.6270   -1.4950    0.4250 C   0  0  0  0  0  0  0  0  0  0  0  0
   -1.9040   -0.2550    0.0090 C   0  0  0  0  0  0  0  0  0  0  0  0
   -3.2170    0.4260    0.2940 C   0  0  0  0  0  0  0  0  0  0  0  0
   -3.1290    1.1230    1.5040 F   0  0  0  0  0  0  0  0  0  0  0  0
   -3.5120    1.3220   -0.7390 F   0  0  0  0  0  0  0  0  0  0  0  0
   -4.2310   -0.5340    0.3820 F   0  0  0  0  0  0  0  0  0  0  0  0
    2.2730    0.7990   -0.6560 N   0  0  0  0  0  0  0  0  0  0  0  0
   -0.9330    0.3240   -0.6680 N   0  0  0  0  0  0  0  0  0  0  0  0
    3.3320   -1.1040   -0.2200 O   0  0  0  0  0  0  0  0  0  0  0  0
   -0.0010   -1.8990   -0.1180 S   0  0  0  0  0  0  0  0  0  0  0  0
    5.1740   -0.9970    1.3680 H   0  0  0  0  0  0  0  0  0  0  0  0
    5.7530    0.5580    2.2310 H   0  0  0  0  0  0  0  0  0  0  0  0
    4.0450    1.8240    1.0960 H   0  0  0  0  0  0  0  0  0  0  0  0
    1.4600    2.4080    0.4160 H   0  0  0  0  0  0  0  0  0  0  0  0
    3.1230    2.6540   -0.1700 H   0  0  0  0  0  0  0  0  0  0  0  0
    1.7580    2.7250   -1.3100 H   0  0  0  0  0  0  0  0  0  0  0  0
    1.8730   -0.7170   -2.0490 H   0  0  0  0  0  0  0  0  0  0  0  0
    1.0570    0.8330   -2.3650 H   0  0  0  0  0  0  0  0  0  0  0  0
   -2.2860   -2.1360    0.9920 H   0  0  0  0  0  0  0  0  0  0  0  0
  9 11  1  0  0  0  0
  7  8  2  0  0  0  0
  7 16  1  0  0  0  0
  9 10  1  0  0  0  0
  9 12  1  0  0  0  0
  8  9  1  0  0  0  0
  8 14  1  0  0  0  0
  6 16  1  0  0  0  0
  6 14  2  0  0  0  0
  5  6  1  0  0  0  0
  5 13  1  0  0  0  0
  3 15  2  0  0  0  0
  3 13  1  0  0  0  0
  4 13  1  0  0  0  0
  2  3  1  0  0  0  0
  1  2  2  0  0  0  0
  1 17  1  0  0  0  0
  1 18  1  0  0  0  0
  2 19  1  0  0  0  0
  4 20  1  0  0  0  0
  4 21  1  0  0  0  0
  4 22  1  0  0  0  0
  5 23  1  0  0  0  0
  5 24  1  0  0  0  0
  7 25  1  0  0  0  0
M  END
> <OPENEYE_ISO_SMILES>
CN(Cc1nc(cs1)C(F)(F)F)C(=O)C=C

> <OPENEYE_INCHI>
InChI=1S/C9H9F3N2OS/c1-3-8(15)14(2)4-7-13-6(5-16-7)9(10,11)12/h3,5H,1,4H2,2H3

> <OPENEYE_INCHIKEY>
ZPJNBQRFMJDXHX-UHFFFAOYSA-N

> <FORMULA>
C9H9F3N2OS

$$$$
