@<TRIPOS>MOLECULE
/home/pku/3cl/gett_pdb/5RL2/5RL2_mol2/ligand/5RL2_VEM.pdb
 29 30 0 0 0
SMALL
GASTEIGER

@<TRIPOS>ATOM
      1  N1         7.8980    1.5700   22.9850 N.am  1001  VEM1001    -0.2011
      2  C4         8.0700    0.9560   21.8190 C.2   1001  VEM1001     0.2642
      3  C5         8.6420    2.7680   23.3290 C.3   1001  VEM1001     0.1472
      4  C6         8.0250    3.9580   22.6650 C.3   1001  VEM1001     0.1656
      5  C7         8.4110    6.1860   22.2660 C.3   1001  VEM1001     0.1742
      6  C8         6.3520    0.2020   20.1220 C.ar  1001  VEM1001     0.0241
      7  C10        5.4620    1.0880   17.6980 C.ar  1001  VEM1001     0.0989
      8  C13        8.7180   -1.6690   22.4330 C.ar  1001  VEM1001     0.0545
      9  C15       11.1210   -1.7750   22.3920 C.ar  1001  VEM1001    -0.0030
     10  C17        9.9640   -1.9480   24.4760 C.ar  1001  VEM1001    -0.0030
     11  C20       13.7070   -1.9810   23.5880 C.3   1001  VEM1001     0.0044
     12  C21       12.6130   -3.1070   25.5020 C.3   1001  VEM1001     0.0044
     13  C22       12.6320   -0.6160   25.3320 C.3   1001  VEM1001     0.0044
     14  O1         8.9750    1.2360   21.0350 O.2   1001  VEM1001    -0.2712
     15  O2         9.0040    4.9460   22.5290 O.3   1001  VEM1001    -0.3492
     16  C3         7.0100   -0.0960   21.4580 C.3   1001  VEM1001     0.1817
     17  C12        5.2330    1.0190   20.0560 C.ar  1001  VEM1001     0.0010
     18  C11        4.7760    1.4730   18.8350 C.ar  1001  VEM1001     0.0204
     19  N2         6.5340    0.2900   17.7210 N.ar  1001  VEM1001    -0.2426
     20  C9         6.9450   -0.1470   18.9160 C.ar  1001  VEM1001     0.0967
     21  N          7.4670   -1.4760   21.7540 N.am  1001  VEM1001    -0.2480
     22  C2         6.6540   -2.5250   21.4340 C.2   1001  VEM1001     0.2299
     23  O          5.4910   -2.3570   21.1040 O.2   1001  VEM1001    -0.2745
     24  C1         7.2470   -3.9060   21.4290 C.3   1001  VEM1001     0.0857
     25  C          7.1310   -4.5210   20.0710 C.3   1001  VEM1001     0.0101
     26  C18        8.7510   -1.8180   23.8200 C.ar  1001  VEM1001     0.0146
     27  C16       11.1690   -1.9080   23.7790 C.ar  1001  VEM1001    -0.0227
     28  C19       12.5070   -1.9120   24.5340 C.3   1001  VEM1001     0.0189
     29  C14        9.9150   -1.6640   21.7230 C.ar  1001  VEM1001     0.0146
@<TRIPOS>BOND
     1     7    19   ar
     2     7    18   ar
     3    19    20   ar
     4    18    17   ar
     5    20     6   ar
     6    17     6   ar
     7    25    24    1
     8     6    16    1
     9    14     2    2
    10    23    22    2
    11    24    22    1
    12    22    21   am
    13    16    21    1
    14    16     2    1
    15    29     9   ar
    16    29     8   ar
    17    21     8    1
    18     2     1   am
    19     5    15    1
    20     9    27   ar
    21     8    26   ar
    22    15     4    1
    23     4     3    1
    24     1     3    1
    25    11    28    1
    26    27    10   ar
    27    27    28    1
    28    26    10   ar
    29    28    13    1
    30    28    12    1
