@<TRIPOS>MOLECULE
/home/pku/3cl/gett_pdb/7DGI/7DGI_mol2/ligand/7DGI_H6L.pdb
 38 39 0 0 0
SMALL
GASTEIGER

@<TRIPOS>ATOM
      1  C26       -7.6630   16.6340   39.7580 C.2   401  H6L401      0.2652
      2  O36       -7.7910   17.2310   40.7770 O.2   401  H6L401     -0.2684
      3  C27       -6.3400   16.8580   38.9240 C.ar  401  H6L401      0.0552
      4  C28       -5.3710   15.9140   38.5080 C.ar  401  H6L401      0.0063
      5  C29       -4.2560   16.3860   37.7570 C.ar  401  H6L401      0.0242
      6  C30       -4.1370   17.7540   37.4210 C.ar  401  H6L401      0.1429
      7  C34       -5.1160   18.6640   37.8400 C.ar  401  H6L401      0.0242
      8  C35       -6.1980   18.2050   38.5830 C.ar  401  H6L401      0.0063
      9  N31       -3.0370   18.3630   36.6550 N.pl3 401  H6L401      0.0577
     10  O32       -2.1040   17.5950   35.9350 O.2   401  H6L401     -0.1261
     11  O33       -2.9370   19.5420   36.6450 O.2   401  H6L401     -0.1261
     12  N25       -8.8080   15.8100   39.3180 N.am  401  H6L401     -0.1940
     13  C21       -9.9250   15.8660   40.2450 C.3   401  H6L401      0.1730
     14  C20      -10.3180   14.5250   40.8160 C.2   401  H6L401      0.2616
     15  O37      -10.5410   13.5950   40.1150 O.2   401  H6L401     -0.2715
     16  C22      -11.1670   16.4960   39.5360 C.3   401  H6L401      0.0290
     17  C24      -10.7800   17.6150   38.5280 C.3   401  H6L401      0.0023
     18  C23      -12.2170   17.0010   40.5530 C.3   401  H6L401      0.0023
     19  N19      -10.4220   14.4690   42.2880 N.am  401  H6L401     -0.1963
     20  C14      -10.8160   13.2760   42.9860 C.3   401  H6L401      0.1728
     21  C13      -12.3270   13.1680   42.7370 C.2   401  H6L401      0.2616
     22  O38      -13.0610   14.0770   42.9420 O.2   401  H6L401     -0.2715
     23  C15      -10.5160   13.4670   44.4760 C.3   401  H6L401      0.0311
     24  C16       -8.9520   13.5360   44.7550 C.3   401  H6L401      0.0022
     25  C17       -8.2010   12.3440   44.1160 C.3   401  H6L401      0.0001
     26  C18       -8.6610   13.6270   46.2550 C.3   401  H6L401      0.0001
     27  C07      -14.3840   14.6500   38.5610 C.3   401  H6L401      0.0239
     28  C03      -14.2940   11.7890   41.9600 C.3   401  H6L401      0.1601
     29  C06      -14.5960   13.7380   39.6760 C.3   401  H6L401      0.0110
     30  C10      -14.1050   11.8690   38.0010 C.2   401  H6L401      0.2410
     31  C04      -14.5080   11.4160   40.4910 C.3   401  H6L401      0.0388
     32  C02      -14.8280   10.7120   42.8640 C.2   401  H6L401      0.2287
     33  C05      -13.9350   12.4840   39.4590 C.3   401  H6L401      0.0804
     34  C08      -15.1100   14.1700   37.3600 C.3   401  H6L401      0.1152
     35  N12      -12.8530   11.9140   42.2110 N.am  401  H6L401     -0.1977
     36  N09      -14.7190   12.7580   36.9200 N.am  401  H6L401     -0.2054
     37  O01      -15.9990   10.5260   42.8480 O.2   401  H6L401     -0.2864
     38  O11      -13.7680   10.7620   37.7600 O.2   401  H6L401     -0.2734
@<TRIPOS>BOND
     1    10     9    2
     2    11     9    2
     3     9     6    1
     4    36    34    1
     5    36    30   am
     6    34    27    1
     7     6     5   ar
     8     6     7   ar
     9     5     4   ar
    10    38    30    2
    11     7     8   ar
    12    30    33    1
    13     4     3   ar
    14    17    16    1
    15    27    29    1
    16     8     3   ar
    17     3     1    1
    18    12     1   am
    19    12    13    1
    20    33    29    1
    21    33    31    1
    22    16    13    1
    23    16    18    1
    24     1     2    2
    25    15    14    2
    26    13    14    1
    27    31    28    1
    28    14    19   am
    29    28    35    1
    30    28    32    1
    31    35    21   am
    32    19    20    1
    33    21    22    2
    34    21    20    1
    35    37    32    2
    36    20    23    1
    37    25    24    1
    38    23    24    1
    39    24    26    1
