@<TRIPOS>MOLECULE
/home/pku/3cl/gett_pdb/5SSM/5SSM_mol2/ligand/5SSM_RRF.pdb
 39 42 0 0 0
SMALL
GASTEIGER

@<TRIPOS>ATOM
      1  C18      -49.6640  -29.2980    6.0910 C.ar  201  RRF201      0.0660
      2  C16      -49.4830  -29.2640    3.7020 C.ar  201  RRF201     -0.0221
      3  C17      -50.2530  -29.3570    4.8520 C.ar  201  RRF201      0.0895
      4  C15      -48.1210  -29.0970    3.8290 C.ar  201  RRF201      0.0388
      5  C14      -47.3230  -29.0570    2.5540 C.2   201  RRF201      0.2446
      6  C12      -45.2220  -29.2650    1.3260 C.3   201  RRF201      0.0580
      7  C11      -45.1050  -27.8570    0.7560 C.ar  201  RRF201     -0.0199
      8  C10      -46.1390  -26.9880    0.4560 C.ar  201  RRF201     -0.0563
      9  C20      -51.7910  -29.5400    6.3330 C.ar  201  RRF201      0.0944
     10  C02      -43.5240  -30.6320    2.5220 C.2   201  RRF201      0.0926
     11  C03      -43.8410  -29.8830    1.2320 C.3   201  RRF201      0.0343
     12  C04      -42.8940  -28.7190    0.9690 C.3   201  RRF201     -0.0132
     13  C05      -43.7830  -27.5250    0.5100 C.ar  201  RRF201     -0.0003
     14  C06      -43.5110  -26.2560   -0.0360 C.ar  201  RRF201      0.1204
     15  C08      -44.5610  -25.3870   -0.3290 C.ar  201  RRF201     -0.0199
     16  C09      -45.8650  -25.7570   -0.0770 C.ar  201  RRF201     -0.0580
     17  C22      -48.2790  -29.1460    6.2140 C.ar  201  RRF201     -0.0355
     18  C23      -47.5040  -29.0550    5.0710 C.ar  201  RRF201     -0.0476
     19  N13      -45.8830  -29.2450    2.6030 N.am  201  RRF201     -0.3039
     20  N19      -50.6520  -29.4150    6.9780 N.ar  201  RRF201     -0.3444
     21  N21      -51.5590  -29.5060    5.0470 N.ar  201  RRF201     -0.2359
     22  O01      -44.0630  -31.7470    2.7390 O.co2 201  RRF201     -0.8473
     23  O07      -42.2100  -25.8370   -0.3290 O.3   201  RRF201     -0.5065
     24  O24      -47.9060  -28.9770    1.5270 O.2   201  RRF201     -0.2702
     25  O25      -42.7340  -30.1520    3.3760 O.co2 201  RRF201     -0.3086
     26 H161      -49.9490  -29.2990    2.7220 H     201  RRF201      0.0647
     27 H121      -45.8520  -29.8330    0.6670 H     201  RRF201      0.0555
     28 H101      -47.1610  -27.2720    0.6600 H     201  RRF201      0.0621
     29 H201      -52.7620  -29.6540    6.7730 H     201  RRF201      0.1027
     30 H031      -43.8250  -30.5700    0.3760 H     201  RRF201      0.0393
     31 H041      -42.3840  -28.4640    1.9030 H     201  RRF201      0.0322
     32 H042      -42.1990  -28.9930    0.1870 H     201  RRF201      0.0322
     33 H081      -44.3900  -24.4050   -0.7510 H     201  RRF201      0.0654
     34 H091      -46.6740  -25.0860   -0.2950 H     201  RRF201      0.0619
     35 H221      -47.8290  -29.1000    7.1920 H     201  RRF201      0.0639
     36 H231      -46.4340  -28.9240    5.1440 H     201  RRF201      0.0626
     37 H131      -45.4050  -29.3500    3.4790 H     201  RRF201      0.1496
     38 H191      -50.5510  -29.4140    7.9580 H     201  RRF201      0.1668
     39 H071      -42.0920  -25.9170   -1.2740 H     201  RRF201      0.2921
@<TRIPOS>UNITY_ATOM_ATTR
22 1
charge -1
@<TRIPOS>BOND
     1    39    23    1
     2    33    15    1
     3    23    14    1
     4    15    16   ar
     5    15    14   ar
     6    34    16    1
     7    16     8   ar
     8    14    13   ar
     9    32    12    1
    10    30    11    1
    11     8    28    1
    12     8     7   ar
    13    13     7   ar
    14    13    12    1
    15    27     6    1
    16     7     6    1
    17    12    11    1
    18    12    31    1
    19    11     6    1
    20    11    10    1
    21     6    19    1
    22    24     5    2
    23    10    22   ar
    24    10    25   ar
    25     5    19   am
    26     5     4    1
    27    19    37    1
    28    26     2    1
    29     2     4   ar
    30     2     3   ar
    31     4    18   ar
    32     3    21   ar
    33     3     1   ar
    34    21     9   ar
    35    18    36    1
    36    18    17   ar
    37     1    17   ar
    38     1    20   ar
    39    17    35    1
    40     9    29    1
    41     9    20   ar
    42    20    38    1
