3EU
  -OEChem-02242320003D

 18 18  0     0  0  0  0  0  0999 V2000
   -3.1020    0.0000   -0.1830 C   0  0  0  0  0  0  0  0  0  0  0  0
   -2.2330   -0.0010    1.0480 C   0  0  0  0  0  0  0  0  0  0  0  0
   -0.7820   -0.0010    0.6390 C   0  0  0  0  0  0  0  0  0  0  0  0
   -0.1170    1.1970    0.4530 C   0  0  0  0  0  0  0  0  0  0  0  0
    1.2140    1.1980    0.0770 C   0  0  0  0  0  0  0  0  0  0  0  0
    1.8800    0.0010   -0.1130 C   0  0  0  0  0  0  0  0  0  0  0  0
    1.2140   -1.1970    0.0740 C   0  0  0  0  0  0  0  0  0  0  0  0
   -0.1160   -1.1970    0.4550 C   0  0  0  0  0  0  0  0  0  0  0  0
   -2.5960   -0.0030   -1.2800 O   0  0  0  0  0  0  0  0  0  0  0  0
    2.0510   -2.7010   -0.1570 Cl  0  0  0  0  0  0  0  0  0  0  0  0
    2.0480    2.7020   -0.1580 Cl  0  0  0  0  0  0  0  0  0  0  0  0
   -2.4430    0.8880    1.6420 H   0  0  0  0  0  0  0  0  0  0  0  0
   -2.4430   -0.8920    1.6400 H   0  0  0  0  0  0  0  0  0  0  0  0
   -0.6380    2.1320    0.6010 H   0  0  0  0  0  0  0  0  0  0  0  0
    2.9190    0.0010   -0.4070 H   0  0  0  0  0  0  0  0  0  0  0  0
   -0.6360   -2.1330    0.6000 H   0  0  0  0  0  0  0  0  0  0  0  0
   -4.4390   -0.0000   -0.0610 O   0  0  0  0  0  0  0  0  0  0  0  0
   -4.9540    0.0010   -0.8790 H   0  0  0  0  0  0  0  0  0  0  0  0
  7 10  1  0  0  0  0
  7  8  2  0  0  0  0
  6  7  1  0  0  0  0
  3  8  1  0  0  0  0
  5  6  2  0  0  0  0
  3  4  2  0  0  0  0
  2  3  1  0  0  0  0
  4  5  1  0  0  0  0
  5 11  1  0  0  0  0
  1  2  1  0  0  0  0
  1  9  2  0  0  0  0
  2 12  1  0  0  0  0
  2 13  1  0  0  0  0
  4 14  1  0  0  0  0
  6 15  1  0  0  0  0
  8 16  1  0  0  0  0
  1 17  1  0  0  0  0
 17 18  1  0  0  0  0
M  END
> <OPENEYE_ISO_SMILES>
c1c(cc(cc1Cl)Cl)CC(=O)O

> <OPENEYE_INCHI>
InChI=1S/C8H6Cl2O2/c9-6-1-5(3-8(11)12)2-7(10)4-6/h1-2,4H,3H2,(H,11,12)

> <OPENEYE_INCHIKEY>
RERINLRFXYGZEE-UHFFFAOYSA-N

> <FORMULA>
C8H6Cl2O2

$$$$
