T9M
  -OEChem-02242320043D

 30 29  0     1  0  0  0  0  0999 V2000
   -1.6820    0.8020    0.3580 N   0  0  0  0  0  0  0  0  0  0  0  0
   -2.7970    0.9260   -0.3890 C   0  0  0  0  0  0  0  0  0  0  0  0
   -3.8720    1.9010    0.0190 C   0  0  0  0  0  0  0  0  0  0  0  0
    0.6880    0.3080    0.5240 C   0  0  0  0  0  0  0  0  0  0  0  0
    3.1130    0.5000    0.3880 C   0  0  0  0  0  0  0  0  0  0  0  0
    4.2330   -0.0200   -0.4760 C   0  0  0  0  0  0  0  0  0  0  0  0
   -2.2570   -2.0370   -0.1690 C   0  0  0  0  0  0  0  0  0  0  0  0
   -0.9710   -1.5350    0.4920 C   0  0  2  0  0  0  0  0  0  0  0  0
   -0.6350   -0.1410   -0.0420 C   0  0  1  0  0  0  0  0  0  0  0  0
    5.0610    0.8180   -1.0490 C   0  0  0  0  0  0  0  0  0  0  0  0
    1.8360   -0.0250   -0.0990 N   0  0  0  0  0  0  0  0  0  0  0  0
    0.1000   -2.4310    0.1920 O   0  0  0  0  0  0  0  0  0  0  0  0
   -2.9360    0.2550   -1.3890 O   0  0  0  0  0  0  0  0  0  0  0  0
    0.7200    0.9690    1.5400 O   0  0  0  0  0  0  0  0  0  0  0  0
   -1.5710    1.3390    1.1580 H   0  0  0  0  0  0  0  0  0  0  0  0
   -3.4580    2.9090    0.0450 H   0  0  0  0  0  0  0  0  0  0  0  0
   -4.6900    1.8620   -0.7000 H   0  0  0  0  0  0  0  0  0  0  0  0
   -4.2460    1.6360    1.0090 H   0  0  0  0  0  0  0  0  0  0  0  0
    3.2690    0.1780    1.4180 H   0  0  0  0  0  0  0  0  0  0  0  0
    3.0980    1.5890    0.3470 H   0  0  0  0  0  0  0  0  0  0  0  0
    4.3530   -1.0830   -0.6230 H   0  0  0  0  0  0  0  0  0  0  0  0
   -2.4970   -3.0300    0.2120 H   0  0  0  0  0  0  0  0  0  0  0  0
   -3.0740   -1.3530    0.0600 H   0  0  0  0  0  0  0  0  0  0  0  0
   -2.1150   -2.0860   -1.2480 H   0  0  0  0  0  0  0  0  0  0  0  0
   -1.1130   -1.4850    1.5710 H   0  0  0  0  0  0  0  0  0  0  0  0
   -0.5720   -0.1740   -1.1300 H   0  0  0  0  0  0  0  0  0  0  0  0
    5.8630    0.4460   -1.6690 H   0  0  0  0  0  0  0  0  0  0  0  0
    4.9410    1.8820   -0.9020 H   0  0  0  0  0  0  0  0  0  0  0  0
    1.8160   -0.6130   -0.8710 H   0  0  0  0  0  0  0  0  0  0  0  0
    0.9250   -2.2260    0.6530 H   0  0  0  0  0  0  0  0  0  0  0  0
  7  8  1  0  0  0  0
  8 12  1  0  0  0  0
  8  9  1  0  0  0  0
  1  9  1  0  0  0  0
  1  2  1  0  0  0  0
  2  3  1  0  0  0  0
  2 13  2  0  0  0  0
  4  9  1  0  0  0  0
  4 14  2  0  0  0  0
  4 11  1  0  0  0  0
  5 11  1  0  0  0  0
  5  6  1  0  0  0  0
  6 10  2  0  0  0  0
  1 15  1  0  0  0  0
  3 16  1  0  0  0  0
  3 17  1  0  0  0  0
  3 18  1  0  0  0  0
  5 19  1  0  0  0  0
  5 20  1  0  0  0  0
  6 21  1  0  0  0  0
  7 22  1  0  0  0  0
  7 23  1  0  0  0  0
  7 24  1  0  0  0  0
  8 25  1  0  0  0  0
  9 26  1  0  0  0  0
 10 27  1  0  0  0  0
 10 28  1  0  0  0  0
 11 29  1  0  0  0  0
 12 30  1  0  0  0  0
M  END
> <OPENEYE_ISO_SMILES>
C[C@H]([C@H](C(=O)NCC=C)NC(=O)C)O

> <OPENEYE_INCHI>
InChI=1S/C9H16N2O3/c1-4-5-10-9(14)8(6(2)12)11-7(3)13/h4,6,8,12H,1,5H2,2-3H3,(H,10,14)(H,11,13)/t6-,8-/m1/s1

> <OPENEYE_INCHIKEY>
STYVOOMPCLDYII-HTRCEHHLSA-N

> <FORMULA>
C9H16N2O3

$$$$
