JOV
  -OEChem-02242320033D

 29 29  0     0  0  0  0  0  0999 V2000
   -1.6270    2.0400   -0.0010 C   0  0  0  0  0  0  0  0  0  0  0  0
   -2.9080   -0.4210   -0.0020 C   0  0  0  0  0  0  0  0  0  0  0  0
    3.2660    0.5890    1.2460 C   0  0  0  0  0  0  0  0  0  0  0  0
    2.7850   -0.1560   -0.0000 C   0  0  0  0  0  0  0  0  0  0  0  0
    3.2630    0.5820   -1.2520 C   0  0  0  0  0  0  0  0  0  0  0  0
    3.3530   -1.5770    0.0030 C   0  0  0  0  0  0  0  0  0  0  0  0
    4.7810   -1.5180    0.0010 O   0  0  0  0  0  0  0  0  0  0  0  0
    1.3210   -0.2160    0.0020 N   0  0  0  0  0  0  0  0  0  0  0  0
    0.6000    0.9230   -0.0000 C   0  0  0  0  0  0  0  0  0  0  0  0
    1.1640    1.9990   -0.0040 O   0  0  0  0  0  0  0  0  0  0  0  0
   -0.8770    0.8620    0.0020 C   0  0  0  0  0  0  0  0  0  0  0  0
   -3.0050    1.9770    0.0020 C   0  0  0  0  0  0  0  0  0  0  0  0
   -3.6450    0.7510    0.0020 C   0  0  0  0  0  0  0  0  0  0  0  0
   -1.5280   -0.3720    0.0070 C   0  0  0  0  0  0  0  0  0  0  0  0
   -3.7210   -1.9550   -0.0020 Cl  0  0  0  0  0  0  0  0  0  0  0  0
   -1.1290    2.9980    0.0000 H   0  0  0  0  0  0  0  0  0  0  0  0
    2.9260    0.0630    2.1380 H   0  0  0  0  0  0  0  0  0  0  0  0
    4.3560    0.6330    1.2450 H   0  0  0  0  0  0  0  0  0  0  0  0
    2.8620    1.6010    1.2440 H   0  0  0  0  0  0  0  0  0  0  0  0
    4.3520    0.6260   -1.2540 H   0  0  0  0  0  0  0  0  0  0  0  0
    2.9200    0.0510   -2.1400 H   0  0  0  0  0  0  0  0  0  0  0  0
    2.8580    1.5940   -1.2550 H   0  0  0  0  0  0  0  0  0  0  0  0
    3.0120   -2.1020    0.8950 H   0  0  0  0  0  0  0  0  0  0  0  0
    3.0100   -2.1080   -0.8850 H   0  0  0  0  0  0  0  0  0  0  0  0
    5.2100   -2.3850    0.0030 H   0  0  0  0  0  0  0  0  0  0  0  0
    0.8710   -1.0750    0.0050 H   0  0  0  0  0  0  0  0  0  0  0  0
   -3.5860    2.8880    0.0050 H   0  0  0  0  0  0  0  0  0  0  0  0
   -4.7240    0.7080   -0.0060 H   0  0  0  0  0  0  0  0  0  0  0  0
   -0.9540   -1.2870    0.0090 H   0  0  0  0  0  0  0  0  0  0  0  0
  4  5  1  0  0  0  0
  3  4  1  0  0  0  0
  4  8  1  0  0  0  0
  4  6  1  0  0  0  0
  6  7  1  0  0  0  0
  8  9  1  0  0  0  0
  9 11  1  0  0  0  0
  9 10  2  0  0  0  0
  2 15  1  0  0  0  0
 11 14  2  0  0  0  0
  2 14  1  0  0  0  0
  1 11  1  0  0  0  0
  2 13  2  0  0  0  0
  1 12  2  0  0  0  0
 12 13  1  0  0  0  0
  1 16  1  0  0  0  0
  3 17  1  0  0  0  0
  3 18  1  0  0  0  0
  3 19  1  0  0  0  0
  5 20  1  0  0  0  0
  5 21  1  0  0  0  0
  5 22  1  0  0  0  0
  6 23  1  0  0  0  0
  6 24  1  0  0  0  0
  7 25  1  0  0  0  0
  8 26  1  0  0  0  0
 12 27  1  0  0  0  0
 13 28  1  0  0  0  0
 14 29  1  0  0  0  0
M  END
> <OPENEYE_ISO_SMILES>
CC(C)(CO)NC(=O)c1cccc(c1)Cl

> <OPENEYE_INCHI>
InChI=1S/C11H14ClNO2/c1-11(2,7-14)13-10(15)8-4-3-5-9(12)6-8/h3-6,14H,7H2,1-2H3,(H,13,15)

> <OPENEYE_INCHIKEY>
XZDXDRPMHCVWBK-UHFFFAOYSA-N

> <FORMULA>
C11H14ClNO2

$$$$
