@<TRIPOS>MOLECULE
/home/pku/3cl/gett_pdb/5SQT/5SQT_mol2/ligand/5SQT_QUR.pdb
 34 36 0 0 0
SMALL
GASTEIGER

@<TRIPOS>ATOM
      1  C18      -45.6510  -30.3380    3.0380 C.3   201  QUR201      0.0275
      2  C17      -46.6680  -29.5990    4.0950 C.3   201  QUR201      0.0240
      3  C14      -52.9220  -29.8710    5.7340 C.ar  201  QUR201      0.4187
      4  C12      -50.7770  -29.3170    5.6290 C.ar  201  QUR201      0.1688
      5  C10      -51.1830  -29.3780    7.0280 C.ar  201  QUR201      0.0881
      6  C19      -44.1970  -30.3460    3.5460 C.2   201  QUR201      0.0920
      7  C01      -45.3450  -30.3430    0.6620 C.3   201  QUR201     -0.0603
      8  C02      -45.7650  -29.5580    1.9310 C.3   201  QUR201     -0.0179
      9  C03      -47.3310  -29.2040    1.8800 C.3   201  QUR201      0.0182
     10  C05      -49.1030  -28.9370    3.8280 C.2   201  QUR201      0.2503
     11  C06      -49.4810  -28.9930    5.3040 C.ar  201  QUR201      0.0813
     12  C07      -48.5480  -28.7050    6.3110 C.ar  201  QUR201     -0.0459
     13  C08      -48.9430  -28.7660    7.6760 C.ar  201  QUR201     -0.0589
     14  C09      -50.2640  -29.1030    8.0130 C.ar  201  QUR201     -0.0346
     15  N04      -47.7630  -29.2410    3.3550 N.am  201  QUR201     -0.2965
     16  N11      -52.6020  -29.7510    7.0160 N.ar  201  QUR201     -0.2880
     17  O13      -51.9820  -29.6590    4.8450 O.2   201  QUR201     -0.4068
     18  O15      -54.0210  -30.1740    5.4070 O.2   201  QUR201     -0.2229
     19  O16      -49.9470  -28.6590    3.0520 O.2   201  QUR201     -0.2699
     20  O20      -43.6000  -31.4390    3.7460 O.co2 201  QUR201     -0.8474
     21  O21      -43.6010  -29.2550    3.7560 O.co2 201  QUR201     -0.3087
     22 H181      -46.0080  -31.3460    2.8390 H     201  QUR201      0.0387
     23 H172      -46.9590  -30.3100    4.8590 H     201  QUR201      0.0471
     24 H171      -46.2110  -28.7220    4.5420 H     201  QUR201      0.0471
     25 H012      -44.8370  -29.6670   -0.0140 H     201  QUR201      0.0233
     26 H011      -46.2250  -30.7520    0.1770 H     201  QUR201      0.0233
     27 H013      -44.6780  -31.1490    0.9430 H     201  QUR201      0.0233
     28 H021      -45.1780  -28.6570    2.0540 H     201  QUR201      0.0320
     29 H032      -47.8770  -29.9470    1.3110 H     201  QUR201      0.0467
     30 H031      -47.4890  -28.2100    1.4690 H     201  QUR201      0.0467
     31 H071      -47.5290  -28.4650    6.0500 H     201  QUR201      0.0626
     32 H081      -48.2230  -28.5450    8.4470 H     201  QUR201      0.0618
     33 H091      -50.5660  -29.1440    9.0450 H     201  QUR201      0.0639
     34 H111      -53.1940  -29.9010    7.8060 H     201  QUR201      0.1721
@<TRIPOS>UNITY_ATOM_ATTR
20 1
charge -1
@<TRIPOS>BOND
     1    25     7    1
     2    26     7    1
     3     7    27    1
     4     7     8    1
     5    29     9    1
     6    30     9    1
     7     9     8    1
     8     9    15    1
     9     8    28    1
    10     8     1    1
    11    22     1    1
    12     1     6    1
    13     1     2    1
    14    19    10    2
    15    15    10   am
    16    15     2    1
    17     6    20   ar
    18     6    21   ar
    19    10    11    1
    20     2    24    1
    21     2    23    1
    22    17     4   ar
    23    17     3   ar
    24    11     4   ar
    25    11    12   ar
    26    18     3    2
    27     4     5   ar
    28     3    16   ar
    29    31    12    1
    30    12    13   ar
    31    16     5   ar
    32    16    34    1
    33     5    14   ar
    34    13    14   ar
    35    13    32    1
    36    14    33    1
