@<TRIPOS>MOLECULE
/home/pku/3cl/gett_pdb/3R24/3R24_mol2/ligand/3R24_SAM.pdb
 27 29 0 0 0
SMALL
GASTEIGER

@<TRIPOS>ATOM
      1  N         60.5760   61.6140   68.5260 N.3   302  SAM302     -0.1208
      2  CA        60.2890   60.3340   67.8830 C.3   302  SAM302      0.1952
      3  C         61.4520   59.3590   68.0280 C.2   302  SAM302      0.3819
      4  O         61.6820   58.5050   67.1670 O.co2 302  SAM302     -0.2441
      5  OXT       62.1820   59.4090   69.0250 O.co2 302  SAM302     -0.2441
      6  CB        59.8590   60.5350   66.4260 C.3   302  SAM302      0.0414
      7  CG        58.8950   61.7100   66.2740 C.3   302  SAM302      0.0503
      8  SD        57.9890   61.7250   64.7020 S.3   302  SAM302     -0.1761
      9  CE        59.1970   62.5990   63.6870 C.3   302  SAM302      0.0590
     10  C5'       56.7340   63.0110   64.9610 C.3   302  SAM302      0.0805
     11  C4'       55.6910   62.6000   65.9960 C.3   302  SAM302      0.1602
     12  O4'       54.8970   63.7130   66.3820 O.3   302  SAM302     -0.3324
     13  C3'       54.7360   61.5410   65.4540 C.3   302  SAM302      0.2144
     14  O3'       54.7940   60.3900   66.2710 O.3   302  SAM302     -0.2176
     15  C2'       53.3630   62.1850   65.5400 C.3   302  SAM302      0.2336
     16  O2'       52.3590   61.2840   65.9370 O.3   302  SAM302     -0.2155
     17  C1'       53.5700   63.2630   66.5890 C.3   302  SAM302      0.2409
     18  N9        52.5390   64.3300   66.5250 N.ar  302  SAM302     -0.2693
     19  C8        52.2120   65.1520   65.4740 C.ar  302  SAM302      0.1816
     20  N7        51.2100   65.9840   65.8680 N.ar  302  SAM302     -0.2193
     21  C5        50.8870   65.6990   67.1490 C.ar  302  SAM302      0.1518
     22  C6        49.9490   66.2240   68.0330 C.ar  302  SAM302      0.1919
     23  N6        49.1320   67.2080   67.6680 N.pl3 302  SAM302     -0.1054
     24  N1        49.8630   65.7120   69.3060 N.ar  302  SAM302     -0.2040
     25  C2        50.6940   64.6940   69.7070 C.ar  302  SAM302      0.2016
     26  N3        51.6210   64.1760   68.8250 N.ar  302  SAM302     -0.2048
     27  C4        51.7190   64.6680   67.5710 C.ar  302  SAM302      0.1692
@<TRIPOS>BOND
     1     9     8    1
     2     8    10    1
     3     8     7    1
     4    10    11    1
     5    13    15    1
     6    13    11    1
     7    13    14    1
     8    19    20   ar
     9    19    18   ar
    10    15    16    1
    11    15    17    1
    12    20    21   ar
    13    11    12    1
    14     7     6    1
    15    12    17    1
    16     6     2    1
    17    18    17    1
    18    18    27   ar
    19    21    27   ar
    20    21    22   ar
    21     4     3   ar
    22    27    26   ar
    23    23    22    1
    24     2     3    1
    25     2     1    1
    26     3     5   ar
    27    22    24   ar
    28    26    25   ar
    29    24    25   ar
