T9P
  -OEChem-02242320043D

 30 29  0     1  0  0  0  0  0999 V2000
    1.4640   -0.8240    0.8450 N   0  0  0  0  0  0  0  0  0  0  0  0
   -2.0300    0.2000    0.4420 N   0  0  0  0  0  0  0  0  0  0  0  0
    0.8620    1.1440   -0.4760 C   0  0  0  0  0  0  0  0  0  0  0  0
    2.0980    1.8970   -0.0570 C   0  0  0  0  0  0  0  0  0  0  0  0
   -0.8680   -0.4630    0.2810 C   0  0  0  0  0  0  0  0  0  0  0  0
   -3.2970   -0.4430    0.0840 C   0  0  0  0  0  0  0  0  0  0  0  0
   -4.4370    0.5040    0.3570 C   0  0  0  0  0  0  0  0  0  0  0  0
    2.8490   -2.7080    0.0370 C   0  0  0  0  0  0  0  0  0  0  0  0
    1.7900   -1.6550   -0.1650 C   0  0  0  0  0  0  0  0  0  0  0  0
    0.4350    0.1990    0.6490 C   0  0  1  0  0  0  0  0  0  0  0  0
   -5.2820    0.8040   -0.5970 C   0  0  0  0  0  0  0  0  0  0  0  0
    2.6580    2.7920   -0.8950 N   0  0  0  0  0  0  0  0  0  0  0  0
    1.2300   -1.5550   -1.2360 O   0  0  0  0  0  0  0  0  0  0  0  0
    2.5890    1.6980    1.0340 O   0  0  0  0  0  0  0  0  0  0  0  0
   -0.8710   -1.5930   -0.1600 O   0  0  0  0  0  0  0  0  0  0  0  0
    1.9090   -0.9070    1.7030 H   0  0  0  0  0  0  0  0  0  0  0  0
   -2.0280    1.1040    0.7940 H   0  0  0  0  0  0  0  0  0  0  0  0
    0.0580    1.8510   -0.6820 H   0  0  0  0  0  0  0  0  0  0  0  0
    1.0770    0.5650   -1.3750 H   0  0  0  0  0  0  0  0  0  0  0  0
   -3.2860   -0.7030   -0.9750 H   0  0  0  0  0  0  0  0  0  0  0  0
   -3.4250   -1.3480    0.6790 H   0  0  0  0  0  0  0  0  0  0  0  0
   -4.5570    0.9350    1.3400 H   0  0  0  0  0  0  0  0  0  0  0  0
    2.9740   -3.2780   -0.8830 H   0  0  0  0  0  0  0  0  0  0  0  0
    3.7930   -2.2280    0.2980 H   0  0  0  0  0  0  0  0  0  0  0  0
    2.5470   -3.3780    0.8420 H   0  0  0  0  0  0  0  0  0  0  0  0
    0.3060    0.7670    1.5710 H   0  0  0  0  0  0  0  0  0  0  0  0
   -6.0990    1.4830   -0.4010 H   0  0  0  0  0  0  0  0  0  0  0  0
   -5.1620    0.3730   -1.5800 H   0  0  0  0  0  0  0  0  0  0  0  0
    2.2660    2.9510   -1.7670 H   0  0  0  0  0  0  0  0  0  0  0  0
    3.4540    3.2770   -0.6250 H   0  0  0  0  0  0  0  0  0  0  0  0
  8  9  1  0  0  0  0
  9 13  2  0  0  0  0
  1  9  1  0  0  0  0
  1 10  1  0  0  0  0
  3 10  1  0  0  0  0
  3  4  1  0  0  0  0
  4 12  1  0  0  0  0
  4 14  2  0  0  0  0
  5 10  1  0  0  0  0
  5 15  2  0  0  0  0
  2  5  1  0  0  0  0
  2  6  1  0  0  0  0
  6  7  1  0  0  0  0
  7 11  2  0  0  0  0
  1 16  1  0  0  0  0
  2 17  1  0  0  0  0
  3 18  1  0  0  0  0
  3 19  1  0  0  0  0
  6 20  1  0  0  0  0
  6 21  1  0  0  0  0
  7 22  1  0  0  0  0
  8 23  1  0  0  0  0
  8 24  1  0  0  0  0
  8 25  1  0  0  0  0
 10 26  1  0  0  0  0
 11 27  1  0  0  0  0
 11 28  1  0  0  0  0
 12 29  1  0  0  0  0
 12 30  1  0  0  0  0
M  END
> <OPENEYE_ISO_SMILES>
CC(=O)N[C@@H](CC(=O)N)C(=O)NCC=C

> <OPENEYE_INCHI>
InChI=1S/C9H15N3O3/c1-3-4-11-9(15)7(5-8(10)14)12-6(2)13/h3,7H,1,4-5H2,2H3,(H2,10,14)(H,11,15)(H,12,13)/t7-/m0/s1

> <OPENEYE_INCHIKEY>
SLTSADPWEPQRIY-ZETCQYMHSA-N

> <FORMULA>
C9H15N3O3

$$$$
