F86
  -OEChem-02242320023D

 39 41  0     1  0  0  0  0  0999 V2000
    0.9740   -1.6670   -1.6530 C   0  0  0  0  0  0  0  0  0  0  0  0
    2.0760   -0.6610    0.2840 C   0  0  0  0  0  0  0  0  0  0  0  0
   -2.6710   -0.5800    0.5460 C   0  0  0  0  0  0  0  0  0  0  0  0
    2.5820    0.5130   -0.1350 N   0  0  0  0  0  0  0  0  0  0  0  0
    0.4670   -2.5550    0.6030 C   0  0  1  0  0  0  0  0  0  0  0  0
    1.0960   -1.9460   -2.7470 N   0  0  0  0  0  0  0  0  0  0  0  0
   -1.4760   -1.2720   -0.1140 C   0  0  2  0  0  0  0  0  0  0  0  0
    0.9190   -3.7410   -0.0540 O   0  0  0  0  0  0  0  0  0  0  0  0
    2.1710    1.4460   -1.0980 N   0  0  0  0  0  0  0  0  0  0  0  0
   -3.0510    0.5570   -0.2310 O   0  0  0  0  0  0  0  0  0  0  0  0
    3.9880    2.7900   -0.6240 N   0  0  0  0  0  0  0  0  0  0  0  0
    2.8790   -1.1700    1.2560 C   0  0  0  0  0  0  0  0  0  0  0  0
   -5.6560    0.6990    0.0900 O   0  0  0  0  0  0  0  0  0  0  0  0
    0.8170   -1.3050   -0.2350 C   0  0  2  0  0  0  0  0  0  0  0  0
    3.9330   -0.2770    1.4530 C   0  0  0  0  0  0  0  0  0  0  0  0
    4.4470    1.9650    0.3030 C   0  0  0  0  0  0  0  0  0  0  0  0
    2.8730    2.5270   -1.3020 C   0  0  0  0  0  0  0  0  0  0  0  0
   -1.0760   -2.5330    0.6840 C   0  0  1  0  0  0  0  0  0  0  0  0
    3.7370    0.7730    0.5770 C   0  0  0  0  0  0  0  0  0  0  0  0
    5.6050    2.2630    0.9910 N   0  0  0  0  0  0  0  0  0  0  0  0
   -0.3110   -0.4190   -0.0650 O   0  0  0  0  0  0  0  0  0  0  0  0
   -1.6270   -3.7040    0.0790 O   0  0  0  0  0  0  0  0  0  0  0  0
   -4.0780    2.0240    1.5480 O   0  0  0  0  0  0  0  0  0  0  0  0
   -4.2760    1.5230    0.1690 P   0  0  0  0  0  0  0  0  0  0  0  0
   -3.5070   -1.2770    0.6030 H   0  0  0  0  0  0  0  0  0  0  0  0
   -2.3950   -0.2590    1.5500 H   0  0  0  0  0  0  0  0  0  0  0  0
    0.9030   -2.4810    1.5990 H   0  0  0  0  0  0  0  0  0  0  0  0
   -1.7120   -1.5330   -1.1460 H   0  0  0  0  0  0  0  0  0  0  0  0
    0.7250   -4.5560    0.4290 H   0  0  0  0  0  0  0  0  0  0  0  0
    2.7280   -2.1010    1.7820 H   0  0  0  0  0  0  0  0  0  0  0  0
   -5.8510    0.3400   -0.7860 H   0  0  0  0  0  0  0  0  0  0  0  0
    4.7460   -0.3850    2.1560 H   0  0  0  0  0  0  0  0  0  0  0  0
    2.5380    3.2320   -2.0480 H   0  0  0  0  0  0  0  0  0  0  0  0
   -1.4030   -2.4480    1.7210 H   0  0  0  0  0  0  0  0  0  0  0  0
    6.0880    3.0810    0.7980 H   0  0  0  0  0  0  0  0  0  0  0  0
    5.9370    1.6530    1.6690 H   0  0  0  0  0  0  0  0  0  0  0  0
   -1.4070   -4.5250    0.5400 H   0  0  0  0  0  0  0  0  0  0  0  0
   -4.3340    2.7670   -0.8510 O   0  0  0  0  0  0  0  0  0  0  0  0
   -5.0500    3.3910   -0.6690 H   0  0  0  0  0  0  0  0  0  0  0  0
  3  7  1  0  0  0  0
  3 10  1  0  0  0  0
 23 24  2  0  0  0  0
 18 22  1  0  0  0  0
  7 21  1  0  0  0  0
  7 18  1  0  0  0  0
  1  6  3  0  0  0  0
 10 24  1  0  0  0  0
 13 24  1  0  0  0  0
 14 21  1  0  0  0  0
  5 18  1  0  0  0  0
  5  8  1  0  0  0  0
  1 14  1  0  0  0  0
  5 14  1  0  0  0  0
  2 14  1  0  0  0  0
  2 12  2  0  0  0  0
  2  4  1  0  0  0  0
 12 15  1  0  0  0  0
  4  9  1  0  0  0  0
  9 17  2  0  0  0  0
  4 19  1  0  0  0  0
 15 19  2  0  0  0  0
 16 19  1  0  0  0  0
 11 17  1  0  0  0  0
 11 16  2  0  0  0  0
 16 20  1  0  0  0  0
  3 25  1  0  0  0  0
  3 26  1  0  0  0  0
  5 27  1  0  0  0  0
  7 28  1  0  0  0  0
  8 29  1  0  0  0  0
 12 30  1  0  0  0  0
 13 31  1  0  0  0  0
 15 32  1  0  0  0  0
 17 33  1  0  0  0  0
 18 34  1  0  0  0  0
 20 35  1  0  0  0  0
 20 36  1  0  0  0  0
 22 37  1  0  0  0  0
 24 38  1  0  0  0  0
 38 39  1  0  0  0  0
M  END
> <OPENEYE_ISO_SMILES>
c1cc(n2c1c(ncn2)N)[C@]3([C@@H]([C@@H]([C@H](O3)COP(=O)(O)O)O)O)C#N

> <OPENEYE_INCHI>
InChI=1S/C12H14N5O7P/c13-4-12(8-2-1-6-11(14)15-5-16-17(6)8)10(19)9(18)7(24-12)3-23-25(20,21)22/h1-2,5,7,9-10,18-19H,3H2,(H2,14,15,16)(H2,20,21,22)/t7-,9-,10-,12+/m1/s1

> <OPENEYE_INCHIKEY>
ZBHOHJWLOOFLMW-LTGWCKQJSA-N

> <FORMULA>
C12H14N5O7P

$$$$
