LSA
  -OEChem-02242320033D

 17 18  0     0  0  0  0  0  0999 V2000
    2.6840   -1.3270   -0.0000 C   0  0  0  0  0  0  0  0  0  0  0  0
    1.3340   -1.6450   -0.0000 C   0  0  0  0  0  0  0  0  0  0  0  0
    0.4020   -0.6460   -0.0000 C   0  0  0  0  0  0  0  0  0  0  0  0
   -0.4010    1.6010    0.0000 C   0  0  0  0  0  0  0  0  0  0  0  0
    3.0720    0.0010   -0.0000 C   0  0  0  0  0  0  0  0  0  0  0  0
   -1.3690   -0.6090    0.0000 S   0  0  0  0  0  0  0  0  0  0  0  0
   -1.6210    1.0440    0.0000 N   0  0  0  0  0  0  0  0  0  0  0  0
   -0.2640    2.8090   -0.0000 O   0  0  0  0  0  0  0  0  0  0  0  0
    0.7650    0.7070   -0.0000 C   0  0  0  0  0  0  0  0  0  0  0  0
    2.1370    1.0110    0.0000 C   0  0  0  0  0  0  0  0  0  0  0  0
   -1.8070   -1.1080    1.2560 O   0  0  0  0  0  0  0  0  0  0  0  0
   -1.8070   -1.1080   -1.2560 O   0  0  0  0  0  0  0  0  0  0  0  0
    3.4280   -2.1110    0.0040 H   0  0  0  0  0  0  0  0  0  0  0  0
    1.0210   -2.6790   -0.0010 H   0  0  0  0  0  0  0  0  0  0  0  0
    4.1230    0.2490   -0.0000 H   0  0  0  0  0  0  0  0  0  0  0  0
   -2.4740    1.5050    0.0010 H   0  0  0  0  0  0  0  0  0  0  0  0
    2.4590    2.0420    0.0010 H   0  0  0  0  0  0  0  0  0  0  0  0
  1  2  2  0  0  0  0
  1  5  1  0  0  0  0
  1 13  1  0  0  0  0
  2  3  1  0  0  0  0
  2 14  1  0  0  0  0
  3  6  1  0  0  0  0
  3  9  2  0  0  0  0
  4  7  1  0  0  0  0
  4  8  2  0  0  0  0
  4  9  1  0  0  0  0
  5 10  2  0  0  0  0
  5 15  1  0  0  0  0
  6  7  1  0  0  0  0
  6 11  2  0  0  0  0
  6 12  2  0  0  0  0
  7 16  1  0  0  0  0
  9 10  1  0  0  0  0
 10 17  1  0  0  0  0
M  END
> <OPENEYE_ISO_SMILES>
c1ccc2c(c1)C(=O)NS2(=O)=O

> <OPENEYE_INCHI>
InChI=1S/C7H5NO3S/c9-7-5-3-1-2-4-6(5)12(10,11)8-7/h1-4H,(H,8,9)

> <OPENEYE_INCHIKEY>
CVHZOJJKTDOEJC-UHFFFAOYSA-N

> <FORMULA>
C7H5NO3S

$$$$
