@<TRIPOS>MOLECULE
/home/pku/3cl/gett_pdb/7O35/7O35_mol2/ligand/7O35_GTP.pdb
 32 34 0 0 0
SMALL
GASTEIGER

@<TRIPOS>ATOM
      1  PG        31.3660    9.3600   80.8970 P.3   401  GTP401      0.5373
      2  O1G       31.8040   10.8130   80.8340 O.3   401  GTP401     -0.1143
      3  O2G       31.0270    8.8880   82.2940 O.3   401  GTP401     -0.1143
      4  O3G       32.2720    8.4150   80.1430 O.2   401  GTP401     -0.2221
      5  O3B       29.9220    9.2680   80.1540 O.3   401  GTP401     -0.2258
      6  PB        28.7730   10.4050   80.3290 P.3   401  GTP401      0.2277
      7  O1B       28.6270   11.2140   79.0620 O.2   401  GTP401     -0.5168
      8  O2B       29.0290   11.1730   81.6090 O.3   401  GTP401     -0.4368
      9  O3A       27.4080    9.5830   80.5800 O.3   401  GTP401     -0.2700
     10  PA        26.4160    8.9690   79.4590 P.3   401  GTP401      0.2189
     11  O1A       25.0190    8.8990   80.0400 O.3   401  GTP401     -0.4371
     12  O2A       26.5810    9.6140   78.1020 O.2   401  GTP401     -0.5170
     13  O5'       26.9600    7.4650   79.4070 O.3   401  GTP401     -0.3112
     14  C5'       27.4820    6.7840   80.5270 C.3   401  GTP401      0.1813
     15  C4'       28.0780    5.5190   79.9780 C.3   401  GTP401      0.1801
     16  O4'       27.3040    5.1210   78.8380 O.3   401  GTP401     -0.3306
     17  C3'       29.4880    5.6920   79.4600 C.3   401  GTP401      0.2161
     18  O3'       30.4680    5.5410   80.4890 O.3   401  GTP401     -0.2175
     19  C2'       29.5870    4.6600   78.3340 C.3   401  GTP401      0.2337
     20  O2'       30.1590    3.3870   78.6970 O.3   401  GTP401     -0.2155
     21  C1'       28.1430    4.4990   77.8450 C.3   401  GTP401      0.2409
     22  N9        28.0210    5.2530   76.6000 N.ar  401  GTP401     -0.2693
     23  C8        27.4650    6.5060   76.5440 C.ar  401  GTP401      0.1817
     24  N7        27.5600    7.0130   75.3250 N.ar  401  GTP401     -0.2173
     25  C5        28.1670    6.0680   74.5840 C.ar  401  GTP401      0.1748
     26  C6        28.5540    5.9870   73.1800 C.ar  401  GTP401      0.3023
     27  O6        28.2990    6.9390   72.4430 O.2   401  GTP401     -0.2633
     28  N1        29.1980    4.8720   72.7180 N.ar  401  GTP401     -0.1709
     29  C2        29.5210    3.8090   73.5090 C.ar  401  GTP401      0.2606
     30  N2        30.1560    2.7510   72.8530 N.pl3 401  GTP401     -0.0859
     31  N3        29.1790    3.8180   74.8680 N.ar  401  GTP401     -0.1918
     32  C4        28.5050    4.8950   75.4090 C.ar  401  GTP401      0.1723
@<TRIPOS>BOND
     1    27    26    2
     2    28    26   ar
     3    28    29   ar
     4    30    29    1
     5    26    25   ar
     6    29    31   ar
     7    25    24   ar
     8    25    32   ar
     9    31    32   ar
    10    24    23   ar
    11    32    22   ar
    12    23    22   ar
    13    22    21    1
    14    21    19    1
    15    21    16    1
    16    12    10    2
    17    19    20    1
    18    19    17    1
    19    16    15    1
    20     7     6    2
    21    13    10    1
    22    13    14    1
    23    10    11    1
    24    10     9    1
    25    17    15    1
    26    17    18    1
    27    15    14    1
    28     4     1    2
    29     5     6    1
    30     5     1    1
    31     6     9    1
    32     6     8    1
    33     2     1    1
    34     1     3    1
