RVF
  -OEChem-02242320043D

 40 43  0     0  0  0  0  0  0999 V2000
   -1.9630    0.3060    0.8750 C   0  0  0  0  0  0  0  0  0  0  0  0
   -2.0380   -0.0700   -0.4720 C   0  0  0  0  0  0  0  0  0  0  0  0
   -0.8010   -0.3290   -1.2350 C   0  0  0  0  0  0  0  0  0  0  0  0
    1.6280   -0.4580   -1.3920 C   0  0  0  0  0  0  0  0  0  0  0  0
    2.8220   -0.2480   -0.4970 C   0  0  0  0  0  0  0  0  0  0  0  0
    3.5190    0.9690   -0.3070 C   0  0  0  0  0  0  0  0  0  0  0  0
    3.3590    2.2600   -0.8260 C   0  0  0  0  0  0  0  0  0  0  0  0
   -4.3450    0.4260    0.9850 C   0  0  0  0  0  0  0  0  0  0  0  0
   -3.1000    0.5470    1.5910 C   0  0  0  0  0  0  0  0  0  0  0  0
    3.0050   -2.5980    0.3780 C   0  0  0  0  0  0  0  0  0  0  0  0
    3.4200   -1.1930    0.2760 C   0  0  0  0  0  0  0  0  0  0  0  0
    4.5590    0.7090    0.6070 C   0  0  0  0  0  0  0  0  0  0  0  0
    5.4150    1.7410    0.9810 C   0  0  0  0  0  0  0  0  0  0  0  0
    5.2380    3.0010    0.4560 C   0  0  0  0  0  0  0  0  0  0  0  0
    4.2110    3.2560   -0.4440 C   0  0  0  0  0  0  0  0  0  0  0  0
   -6.4690    0.3360    0.3720 C   0  0  0  0  0  0  0  0  0  0  0  0
   -4.4400    0.0440   -0.3650 C   0  0  0  0  0  0  0  0  0  0  0  0
   -3.2770   -0.2020   -1.0930 C   0  0  0  0  0  0  0  0  0  0  0  0
    4.4810   -0.6200    0.9520 N   0  0  0  0  0  0  0  0  0  0  0  0
    0.4000   -0.2020   -0.6350 N   0  0  0  0  0  0  0  0  0  0  0  0
   -5.6430    0.5960    1.4260 N   0  0  0  0  0  0  0  0  0  0  0  0
   -5.7630    0.0010   -0.6760 N   0  0  0  0  0  0  0  0  0  0  0  0
    3.6800   -3.4440    1.1830 O   0  0  0  0  0  0  0  0  0  0  0  0
    2.0540   -2.9990   -0.2640 O   0  0  0  0  0  0  0  0  0  0  0  0
   -0.8640   -0.6560   -2.4040 O   0  0  0  0  0  0  0  0  0  0  0  0
   -7.8190    0.3960    0.4110 O   0  0  0  0  0  0  0  0  0  0  0  0
   -0.9990    0.4020    1.3520 H   0  0  0  0  0  0  0  0  0  0  0  0
    1.6830    0.2270   -2.2380 H   0  0  0  0  0  0  0  0  0  0  0  0
    1.6220   -1.4860   -1.7560 H   0  0  0  0  0  0  0  0  0  0  0  0
    2.5640    2.4670   -1.5280 H   0  0  0  0  0  0  0  0  0  0  0  0
   -3.0330    0.8320    2.6300 H   0  0  0  0  0  0  0  0  0  0  0  0
    6.2160    1.5540    1.6810 H   0  0  0  0  0  0  0  0  0  0  0  0
    5.9030    3.8010    0.7480 H   0  0  0  0  0  0  0  0  0  0  0  0
    4.0860    4.2500   -0.8460 H   0  0  0  0  0  0  0  0  0  0  0  0
   -3.3360   -0.4910   -2.1320 H   0  0  0  0  0  0  0  0  0  0  0  0
    5.0730   -1.0790    1.5680 H   0  0  0  0  0  0  0  0  0  0  0  0
    0.4510    0.0590    0.2980 H   0  0  0  0  0  0  0  0  0  0  0  0
   -5.9160    0.8540    2.3210 H   0  0  0  0  0  0  0  0  0  0  0  0
    3.3700   -4.3590    1.2170 H   0  0  0  0  0  0  0  0  0  0  0  0
   -8.1810    1.2650    0.1870 H   0  0  0  0  0  0  0  0  0  0  0  0
 14 15  2  0  0  0  0
  7 15  1  0  0  0  0
 13 14  1  0  0  0  0
  6  7  2  0  0  0  0
 12 13  2  0  0  0  0
  6 12  1  0  0  0  0
  5  6  1  0  0  0  0
 12 19  1  0  0  0  0
  4  5  1  0  0  0  0
  5 11  2  0  0  0  0
  4 20  1  0  0  0  0
 11 19  1  0  0  0  0
 10 11  1  0  0  0  0
  3 25  2  0  0  0  0
  3 20  1  0  0  0  0
 10 24  2  0  0  0  0
 10 23  1  0  0  0  0
  2  3  1  0  0  0  0
  2 18  2  0  0  0  0
  1  2  1  0  0  0  0
 17 18  1  0  0  0  0
  1  9  2  0  0  0  0
 17 22  1  0  0  0  0
  8 17  2  0  0  0  0
 16 22  2  0  0  0  0
  8  9  1  0  0  0  0
  8 21  1  0  0  0  0
 16 21  1  0  0  0  0
 16 26  1  0  0  0  0
  1 27  1  0  0  0  0
  4 28  1  0  0  0  0
  4 29  1  0  0  0  0
  7 30  1  0  0  0  0
  9 31  1  0  0  0  0
 13 32  1  0  0  0  0
 14 33  1  0  0  0  0
 15 34  1  0  0  0  0
 18 35  1  0  0  0  0
 19 36  1  0  0  0  0
 20 37  1  0  0  0  0
 21 38  1  0  0  0  0
 23 39  1  0  0  0  0
 26 40  1  0  0  0  0
M  END
> <OPENEYE_ISO_SMILES>
c1ccc2c(c1)c(c([nH]2)C(=O)O)CNC(=O)c3ccc4c(c3)nc([nH]4)O

> <OPENEYE_INCHI>
InChI=1S/C18H14N4O4/c23-16(9-5-6-13-14(7-9)22-18(26)21-13)19-8-11-10-3-1-2-4-12(10)20-15(11)17(24)25/h1-7,20H,8H2,(H,19,23)(H,24,25)(H2,21,22,26)

> <OPENEYE_INCHIKEY>
XGVGMKBKRWQGTN-UHFFFAOYSA-N

> <FORMULA>
C18H14N4O4

$$$$
