RYM
  -OEChem-02242320043D

 29 31  0     0  0  0  0  0  0999 V2000
    2.6610   -1.5870   -1.1360 N   0  0  0  0  0  0  0  0  0  0  0  0
   -5.6220    1.2500   -1.1510 N   0  0  0  0  0  0  0  0  0  0  0  0
    2.0430   -0.0130    0.3030 C   0  0  0  0  0  0  0  0  0  0  0  0
    2.9390   -0.3190   -0.7350 C   0  0  0  0  0  0  0  0  0  0  0  0
    3.8740    0.6360   -1.1410 C   0  0  0  0  0  0  0  0  0  0  0  0
    1.6790   -2.0640   -0.4290 C   0  0  0  0  0  0  0  0  0  0  0  0
    0.1750   -1.2990    1.4460 C   0  0  0  0  0  0  0  0  0  0  0  0
   -1.9460   -1.5540    0.1420 C   0  0  0  0  0  0  0  0  0  0  0  0
   -2.5910    1.1120    0.5630 C   0  0  0  0  0  0  0  0  0  0  0  0
   -4.6600    0.8270   -0.7200 C   0  0  0  0  0  0  0  0  0  0  0  0
    3.9100    1.8570   -0.5270 C   0  0  0  0  0  0  0  0  0  0  0  0
   -3.1160   -1.0470   -0.3840 C   0  0  0  0  0  0  0  0  0  0  0  0
   -3.4470    0.2940   -0.1760 C   0  0  0  0  0  0  0  0  0  0  0  0
   -1.4240    0.5910    1.0840 C   0  0  0  0  0  0  0  0  0  0  0  0
    3.0250    2.1600    0.4980 C   0  0  0  0  0  0  0  0  0  0  0  0
    2.0940    1.2320    0.9140 C   0  0  0  0  0  0  0  0  0  0  0  0
   -1.1020   -0.7380    0.8740 C   0  0  0  0  0  0  0  0  0  0  0  0
    1.2580   -1.1360    0.4730 N   0  0  0  0  0  0  0  0  0  0  0  0
    4.5680    0.4110   -1.9370 H   0  0  0  0  0  0  0  0  0  0  0  0
    1.2580   -3.0520   -0.5420 H   0  0  0  0  0  0  0  0  0  0  0  0
    0.4270   -0.7670    2.3630 H   0  0  0  0  0  0  0  0  0  0  0  0
    0.0400   -2.3580    1.6650 H   0  0  0  0  0  0  0  0  0  0  0  0
   -1.6900   -2.5920   -0.0140 H   0  0  0  0  0  0  0  0  0  0  0  0
   -2.8410    2.1490    0.7280 H   0  0  0  0  0  0  0  0  0  0  0  0
    4.6350    2.5920   -0.8440 H   0  0  0  0  0  0  0  0  0  0  0  0
   -3.7740   -1.6850   -0.9550 H   0  0  0  0  0  0  0  0  0  0  0  0
   -0.7610    1.2230    1.6560 H   0  0  0  0  0  0  0  0  0  0  0  0
    3.0660    3.1290    0.9720 H   0  0  0  0  0  0  0  0  0  0  0  0
    1.4080    1.4740    1.7130 H   0  0  0  0  0  0  0  0  0  0  0  0
  5 11  2  0  0  0  0
 11 15  1  0  0  0  0
  4  5  1  0  0  0  0
 15 16  2  0  0  0  0
  1  4  1  0  0  0  0
  3  4  2  0  0  0  0
  1  6  2  0  0  0  0
  3 16  1  0  0  0  0
  3 18  1  0  0  0  0
  6 18  1  0  0  0  0
  7 18  1  0  0  0  0
  7 17  1  0  0  0  0
  8 17  2  0  0  0  0
  8 12  1  0  0  0  0
 14 17  1  0  0  0  0
 12 13  2  0  0  0  0
  9 14  2  0  0  0  0
  9 13  1  0  0  0  0
 10 13  1  0  0  0  0
  2 10  3  0  0  0  0
  5 19  1  0  0  0  0
  6 20  1  0  0  0  0
  7 21  1  0  0  0  0
  7 22  1  0  0  0  0
  8 23  1  0  0  0  0
  9 24  1  0  0  0  0
 11 25  1  0  0  0  0
 12 26  1  0  0  0  0
 14 27  1  0  0  0  0
 15 28  1  0  0  0  0
 16 29  1  0  0  0  0
M  END
> <OPENEYE_ISO_SMILES>
c1ccc2c(c1)ncn2Cc3ccc(cc3)C#N

> <OPENEYE_INCHI>
InChI=1S/C15H11N3/c16-9-12-5-7-13(8-6-12)10-18-11-17-14-3-1-2-4-15(14)18/h1-8,11H,10H2

> <OPENEYE_INCHIKEY>
KZMYEQMVROHICO-UHFFFAOYSA-N

> <FORMULA>
C15H11N3

$$$$
