WY6
  -OEChem-02242320043D

 47 49  0     1  0  0  0  0  0999 V2000
   -3.7570   -1.1900    0.1980 C   0  0  0  0  0  0  0  0  0  0  0  0
   -3.4760    0.1320   -0.1520 C   0  0  0  0  0  0  0  0  0  0  0  0
   -1.9810    2.0960   -0.2040 C   0  0  0  0  0  0  0  0  0  0  0  0
    1.1100    4.3220    0.3440 C   0  0  0  0  0  0  0  0  0  0  0  0
   -0.2390    3.8870   -0.2310 C   0  0  0  0  0  0  0  0  0  0  0  0
   -0.5770    2.4810    0.2690 C   0  0  2  0  0  0  0  0  0  0  0  0
    5.7640   -0.2440   -0.7180 C   0  0  0  0  0  0  0  0  0  0  0  0
   -3.8900   -3.2760    0.8760 C   0  0  0  0  0  0  0  0  0  0  0  0
    1.5680    1.3310    0.3740 C   0  0  0  0  0  0  0  0  0  0  0  0
    2.5700    0.3480   -0.1740 C   0  0  0  0  0  0  0  0  0  0  0  0
    3.8030    0.3170    0.7320 C   0  0  0  0  0  0  0  0  0  0  0  0
    4.8050   -0.6650    0.1830 C   0  0  0  0  0  0  0  0  0  0  0  0
    4.7650   -1.9880    0.5820 C   0  0  0  0  0  0  0  0  0  0  0  0
    5.6850   -2.8900    0.0790 C   0  0  0  0  0  0  0  0  0  0  0  0
    6.6440   -2.4680   -0.8220 C   0  0  0  0  0  0  0  0  0  0  0  0
    6.6810   -1.1460   -1.2250 C   0  0  0  0  0  0  0  0  0  0  0  0
   -5.0060   -1.7280   -0.1530 C   0  0  0  0  0  0  0  0  0  0  0  0
   -5.5680    0.2860   -1.1170 C   0  0  0  0  0  0  0  0  0  0  0  0
    0.3970    1.5260   -0.2640 N   0  0  0  0  0  0  0  0  0  0  0  0
   -2.2580    0.7070    0.1720 N   0  0  0  0  0  0  0  0  0  0  0  0
   -3.0760   -2.1970    0.8480 N   0  0  0  0  0  0  0  0  0  0  0  0
   -5.0220   -2.9990    0.2930 N   0  0  0  0  0  0  0  0  0  0  0  0
   -5.8770   -0.9540   -0.8090 N   0  0  0  0  0  0  0  0  0  0  0  0
   -4.4040    0.8270   -0.8040 N   0  0  0  0  0  0  0  0  0  0  0  0
    1.8150    1.9460    1.3890 O   0  0  0  0  0  0  0  0  0  0  0  0
   -2.7140    2.7520    0.2640 H   0  0  0  0  0  0  0  0  0  0  0  0
   -2.0400    2.1980   -1.2870 H   0  0  0  0  0  0  0  0  0  0  0  0
    1.8840    3.6250    0.0210 H   0  0  0  0  0  0  0  0  0  0  0  0
    1.3520    5.3230   -0.0120 H   0  0  0  0  0  0  0  0  0  0  0  0
    1.0570    4.3260    1.4330 H   0  0  0  0  0  0  0  0  0  0  0  0
   -1.0130    4.5830    0.0920 H   0  0  0  0  0  0  0  0  0  0  0  0
   -0.1850    3.8820   -1.3200 H   0  0  0  0  0  0  0  0  0  0  0  0
   -0.5440    2.4650    1.3580 H   0  0  0  0  0  0  0  0  0  0  0  0
    5.7950    0.7900   -1.0300 H   0  0  0  0  0  0  0  0  0  0  0  0
   -3.6400   -4.2280    1.3210 H   0  0  0  0  0  0  0  0  0  0  0  0
    2.1220   -0.6450   -0.2120 H   0  0  0  0  0  0  0  0  0  0  0  0
    2.8650    0.6520   -1.1790 H   0  0  0  0  0  0  0  0  0  0  0  0
    4.2510    1.3100    0.7690 H   0  0  0  0  0  0  0  0  0  0  0  0
    3.5080    0.0140    1.7360 H   0  0  0  0  0  0  0  0  0  0  0  0
    4.0150   -2.3180    1.2860 H   0  0  0  0  0  0  0  0  0  0  0  0
    5.6540   -3.9240    0.3910 H   0  0  0  0  0  0  0  0  0  0  0  0
    7.3630   -3.1720   -1.2140 H   0  0  0  0  0  0  0  0  0  0  0  0
    7.4310   -0.8170   -1.9290 H   0  0  0  0  0  0  0  0  0  0  0  0
   -6.2940    0.8850   -1.6470 H   0  0  0  0  0  0  0  0  0  0  0  0
    0.1990    1.0330   -1.0760 H   0  0  0  0  0  0  0  0  0  0  0  0
   -1.5890    0.1910    0.6480 H   0  0  0  0  0  0  0  0  0  0  0  0
   -2.1800   -2.1420    1.2160 H   0  0  0  0  0  0  0  0  0  0  0  0
 14 15  2  0  0  0  0
 15 16  1  0  0  0  0
 13 14  1  0  0  0  0
  7 16  2  0  0  0  0
 12 13  2  0  0  0  0
  7 12  1  0  0  0  0
 11 12  1  0  0  0  0
 10 11  1  0  0  0  0
  4  5  1  0  0  0  0
  5  6  1  0  0  0  0
  6 19  1  0  0  0  0
  9 19  1  0  0  0  0
  9 10  1  0  0  0  0
  3  6  1  0  0  0  0
  9 25  2  0  0  0  0
  3 20  1  0  0  0  0
  2 20  1  0  0  0  0
  2 24  2  0  0  0  0
  1  2  1  0  0  0  0
  1 21  1  0  0  0  0
  8 21  1  0  0  0  0
 18 24  1  0  0  0  0
  1 17  2  0  0  0  0
  8 22  2  0  0  0  0
 18 23  2  0  0  0  0
 17 22  1  0  0  0  0
 17 23  1  0  0  0  0
  3 26  1  0  0  0  0
  3 27  1  0  0  0  0
  4 28  1  0  0  0  0
  4 29  1  0  0  0  0
  4 30  1  0  0  0  0
  5 31  1  0  0  0  0
  5 32  1  0  0  0  0
  6 33  1  0  0  0  0
  7 34  1  0  0  0  0
  8 35  1  0  0  0  0
 10 36  1  0  0  0  0
 10 37  1  0  0  0  0
 11 38  1  0  0  0  0
 11 39  1  0  0  0  0
 13 40  1  0  0  0  0
 14 41  1  0  0  0  0
 15 42  1  0  0  0  0
 16 43  1  0  0  0  0
 18 44  1  0  0  0  0
 19 45  1  0  0  0  0
 20 46  1  0  0  0  0
 21 47  1  0  0  0  0
M  END
> <OPENEYE_ISO_SMILES>
CC[C@@H](CNc1c2c(nc[nH]2)ncn1)NC(=O)CCc3ccccc3

> <OPENEYE_INCHI>
InChI=1S/C18H22N6O/c1-2-14(24-15(25)9-8-13-6-4-3-5-7-13)10-19-17-16-18(21-11-20-16)23-12-22-17/h3-7,11-12,14H,2,8-10H2,1H3,(H,24,25)(H2,19,20,21,22,23)/t14-/m0/s1

> <OPENEYE_INCHIKEY>
CYMALXAWPAIOPB-AWEZNQCLSA-N

> <FORMULA>
C18H22N6O

$$$$
