GKF
  -OEChem-02242320023D

 17 18  0     0  0  0  0  0  0999 V2000
   -4.3230    0.8460    0.0020 C   0  0  0  0  0  0  0  0  0  0  0  0
   -5.4340    0.3590    0.0020 O   0  0  0  0  0  0  0  0  0  0  0  0
   -3.1410   -0.0230    0.0010 C   0  0  0  0  0  0  0  0  0  0  0  0
   -3.2880   -1.4110    0.0000 C   0  0  0  0  0  0  0  0  0  0  0  0
   -2.1760   -2.2340   -0.0010 C   0  0  0  0  0  0  0  0  0  0  0  0
   -0.9050   -1.7010   -0.0010 C   0  0  0  0  0  0  0  0  0  0  0  0
   -0.7280   -0.3140   -0.0000 C   0  0  0  0  0  0  0  0  0  0  0  0
   -1.8480    0.5370   -0.0050 C   0  0  0  0  0  0  0  0  0  0  0  0
   -1.3750    1.8160   -0.0030 N   0  0  0  0  0  0  0  0  0  0  0  0
    0.0240    1.7890    0.0030 N   0  0  0  0  0  0  0  0  0  0  0  0
    0.4460    0.5560    0.0000 C   0  0  0  0  0  0  0  0  0  0  0  0
    2.4470   -0.0650    0.0000 I   0  0  0  0  0  0  0  0  0  0  0  0
   -4.2050    1.9190   -0.0020 H   0  0  0  0  0  0  0  0  0  0  0  0
   -4.2770   -1.8450    0.0010 H   0  0  0  0  0  0  0  0  0  0  0  0
   -2.3060   -3.3060   -0.0010 H   0  0  0  0  0  0  0  0  0  0  0  0
   -0.0460   -2.3550    0.0030 H   0  0  0  0  0  0  0  0  0  0  0  0
   -1.9210    2.6180   -0.0060 H   0  0  0  0  0  0  0  0  0  0  0  0
 11 12  1  0  0  0  0
  6  7  2  0  0  0  0
  5  6  1  0  0  0  0
  7 11  1  0  0  0  0
 10 11  2  0  0  0  0
  7  8  1  0  0  0  0
  4  5  2  0  0  0  0
  9 10  1  0  0  0  0
  8  9  1  0  0  0  0
  3  8  2  0  0  0  0
  3  4  1  0  0  0  0
  1  3  1  0  0  0  0
  1  2  2  0  0  0  0
  1 13  1  0  0  0  0
  4 14  1  0  0  0  0
  5 15  1  0  0  0  0
  6 16  1  0  0  0  0
  9 17  1  0  0  0  0
M  END
> <OPENEYE_ISO_SMILES>
c1cc(c2c(c1)c(n[nH]2)I)C=O

> <OPENEYE_INCHI>
InChI=1S/C8H5IN2O/c9-8-6-3-1-2-5(4-12)7(6)10-11-8/h1-4H,(H,10,11)

> <OPENEYE_INCHIKEY>
QWWAONJINWEHJL-UHFFFAOYSA-N

> <FORMULA>
C8H5IN2O

$$$$
