UH5
  -OEChem-02242320043D

 50 52  0     1  0  0  0  0  0999 V2000
    0.7440    1.4020    0.7520 N   0  0  0  0  0  0  0  0  0  0  0  0
   -0.9950    2.0410   -0.8480 C   0  0  2  0  0  0  0  0  0  0  0  0
   -0.6990    1.5900    0.5860 C   0  0  1  0  0  0  0  0  0  0  0  0
    2.7640    1.8060    1.2260 N   0  0  0  0  0  0  0  0  0  0  0  0
    1.4360    0.2830    0.4420 C   0  0  0  0  0  0  0  0  0  0  0  0
   -0.9990   -0.7090   -0.1030 O   0  0  0  0  0  0  0  0  0  0  0  0
   -5.0970   -0.3310    1.0340 C   0  0  0  0  0  0  0  0  0  0  0  0
   -0.8270   -1.4830   -2.3860 C   0  0  0  0  0  0  0  0  0  0  0  0
   -0.5670    0.9370   -1.8190 C   0  0  1  0  0  0  0  0  0  0  0  0
    1.5670    2.2770    1.2120 N   0  0  0  0  0  0  0  0  0  0  0  0
   -1.2940   -0.3610   -1.4570 C   0  0  2  0  0  0  0  0  0  0  0  0
   -0.2670    3.2370   -1.1320 O   0  0  0  0  0  0  0  0  0  0  0  0
   -1.4210    0.2670    0.8550 C   0  0  2  0  0  0  0  0  0  0  0  0
   -0.9060    1.3190   -3.1540 O   0  0  0  0  0  0  0  0  0  0  0  0
   -3.6100   -0.6500    1.1960 C   0  0  0  0  0  0  0  0  0  0  0  0
   -7.3580   -1.2150    1.3610 N   0  0  0  0  0  0  0  0  0  0  0  0
   -5.9290   -1.5210    1.5160 C   0  0  0  0  0  0  0  0  0  0  0  0
   -2.8320    0.4620    0.7460 O   0  0  0  0  0  0  0  0  0  0  0  0
    2.7400    0.5480    0.7500 C   0  0  0  0  0  0  0  0  0  0  0  0
    3.8970   -0.3680    0.5910 C   0  0  0  0  0  0  0  0  0  0  0  0
    5.1750    0.0520    0.9520 C   0  0  0  0  0  0  0  0  0  0  0  0
    6.2480   -0.8030    0.8030 C   0  0  0  0  0  0  0  0  0  0  0  0
    6.0560   -2.0760    0.2950 C   0  0  0  0  0  0  0  0  0  0  0  0
    4.7890   -2.4970   -0.0660 C   0  0  0  0  0  0  0  0  0  0  0  0
    3.7080   -1.6520    0.0850 C   0  0  0  0  0  0  0  0  0  0  0  0
   -1.5870   -2.6650   -2.1250 O   0  0  0  0  0  0  0  0  0  0  0  0
   -2.0630    2.2300   -0.9570 H   0  0  0  0  0  0  0  0  0  0  0  0
   -1.0510    2.3470    1.2860 H   0  0  0  0  0  0  0  0  0  0  0  0
    1.0390   -0.6350    0.0350 H   0  0  0  0  0  0  0  0  0  0  0  0
   -5.3460    0.5500    1.6260 H   0  0  0  0  0  0  0  0  0  0  0  0
   -5.3150   -0.1370   -0.0160 H   0  0  0  0  0  0  0  0  0  0  0  0
   -0.9710   -1.1800   -3.4230 H   0  0  0  0  0  0  0  0  0  0  0  0
    0.2290   -1.6850   -2.2100 H   0  0  0  0  0  0  0  0  0  0  0  0
    0.5090    0.7840   -1.7460 H   0  0  0  0  0  0  0  0  0  0  0  0
   -2.3690   -0.2200   -1.5700 H   0  0  0  0  0  0  0  0  0  0  0  0
   -0.4050    3.5790   -2.0260 H   0  0  0  0  0  0  0  0  0  0  0  0
   -1.1790   -0.0820    1.8590 H   0  0  0  0  0  0  0  0  0  0  0  0
   -0.6630    0.6650   -3.8240 H   0  0  0  0  0  0  0  0  0  0  0  0
   -3.3920   -0.8440    2.2470 H   0  0  0  0  0  0  0  0  0  0  0  0
   -3.3600   -1.5300    0.6040 H   0  0  0  0  0  0  0  0  0  0  0  0
   -7.9290   -1.9860    1.6720 H   0  0  0  0  0  0  0  0  0  0  0  0
   -7.6000   -0.3650    1.8480 H   0  0  0  0  0  0  0  0  0  0  0  0
   -5.6800   -2.4020    0.9240 H   0  0  0  0  0  0  0  0  0  0  0  0
   -5.7120   -1.7150    2.5660 H   0  0  0  0  0  0  0  0  0  0  0  0
    5.3270    1.0450    1.3490 H   0  0  0  0  0  0  0  0  0  0  0  0
    7.2390   -0.4790    1.0830 H   0  0  0  0  0  0  0  0  0  0  0  0
    6.8980   -2.7420    0.1800 H   0  0  0  0  0  0  0  0  0  0  0  0
    4.6440   -3.4910   -0.4630 H   0  0  0  0  0  0  0  0  0  0  0  0
    2.7190   -1.9840   -0.1930 H   0  0  0  0  0  0  0  0  0  0  0  0
   -1.3440   -3.4190   -2.6790 H   0  0  0  0  0  0  0  0  0  0  0  0
 16 17  1  0  0  0  0
  7 17  1  0  0  0  0
  7 15  1  0  0  0  0
 15 18  1  0  0  0  0
 13 18  1  0  0  0  0
  8 11  1  0  0  0  0
  8 26  1  0  0  0  0
  6 11  1  0  0  0  0
  9 11  1  0  0  0  0
  6 13  1  0  0  0  0
  3 13  1  0  0  0  0
  9 14  1  0  0  0  0
  2  3  1  0  0  0  0
  1  3  1  0  0  0  0
  2  9  1  0  0  0  0
  2 12  1  0  0  0  0
  1  5  1  0  0  0  0
  1 10  1  0  0  0  0
  5 19  2  0  0  0  0
  4 10  2  0  0  0  0
  4 19  1  0  0  0  0
 19 20  1  0  0  0  0
 20 25  2  0  0  0  0
 24 25  1  0  0  0  0
 20 21  1  0  0  0  0
 23 24  2  0  0  0  0
 21 22  2  0  0  0  0
 22 23  1  0  0  0  0
  2 27  1  0  0  0  0
  3 28  1  0  0  0  0
  5 29  1  0  0  0  0
  7 30  1  0  0  0  0
  7 31  1  0  0  0  0
  8 32  1  0  0  0  0
  8 33  1  0  0  0  0
  9 34  1  0  0  0  0
 11 35  1  0  0  0  0
 12 36  1  0  0  0  0
 13 37  1  0  0  0  0
 14 38  1  0  0  0  0
 15 39  1  0  0  0  0
 15 40  1  0  0  0  0
 16 41  1  0  0  0  0
 16 42  1  0  0  0  0
 17 43  1  0  0  0  0
 17 44  1  0  0  0  0
 21 45  1  0  0  0  0
 22 46  1  0  0  0  0
 23 47  1  0  0  0  0
 24 48  1  0  0  0  0
 25 49  1  0  0  0  0
 26 50  1  0  0  0  0
M  END
> <OPENEYE_ISO_SMILES>
c1ccc(cc1)c2cn(nn2)[C@H]3[C@H]([C@@H]([C@H](O[C@@H]3OCCCN)CO)O)O

> <OPENEYE_INCHI>
InChI=1S/C17H24N4O5/c18-7-4-8-25-17-14(16(24)15(23)13(10-22)26-17)21-9-12(19-20-21)11-5-2-1-3-6-11/h1-3,5-6,9,13-17,22-24H,4,7-8,10,18H2/t13-,14+,15-,16-,17+/m1/s1

> <OPENEYE_INCHIKEY>
XCUIOLRELJNONY-JJTUDDRGSA-N

> <FORMULA>
C17H24N4O5

$$$$
