@<TRIPOS>MOLECULE
/home/pku/3cl/gett_pdb/5RU2/5RU2_mol2/ligand/5RU2_06Y.pdb
 18 18 0 0 0
SMALL
GASTEIGER

@<TRIPOS>ATOM
      1  C1       -43.1330  -32.2390    1.9740 C.2   201  06Y201      0.0789
      2  O1       -43.1650  -33.4720    2.1460 O.co2 201  06Y201     -0.5463
      3  C2       -43.4300  -31.6710    0.5970 C.3   201  06Y201      0.1286
      4  O2       -43.4910  -32.6880   -0.4040 O.3   201  06Y201     -0.4862
      5  C3       -44.6660  -33.4450   -0.4550 C.ar  201  06Y201      0.1210
      6  C4       -44.6470  -34.5960   -1.1580 C.ar  201  06Y201     -0.0199
      7  C5       -45.7830  -35.3780   -1.2870 C.ar  201  06Y201     -0.0583
      8  C6       -46.9510  -35.0190   -0.7150 C.ar  201  06Y201     -0.0615
      9  C7       -46.9880  -33.8910    0.0310 C.ar  201  06Y201     -0.0583
     10  C8       -45.8470  -33.0870    0.1490 C.ar  201  06Y201     -0.0199
     11  H30      -42.7050  -31.0700    0.3640 H     201  06Y201      0.0760
     12  H31      -44.2500  -31.1550    0.6220 H     201  06Y201      0.0760
     13  H32      -43.8650  -34.8530   -1.5910 H     201  06Y201      0.0654
     14  H33      -45.7420  -36.1630   -1.7840 H     201  06Y201      0.0619
     15  OXT      -42.8730  -31.4990    2.9130 O.co2 201  06Y201     -0.5463
     16  H34      -47.6980  -35.5660   -0.7800 H     201  06Y201      0.0618
     17  H35      -47.7830  -33.6310    0.4380 H     201  06Y201      0.0619
     18  H36      -45.8960  -32.3000    0.6410 H     201  06Y201      0.0654
@<TRIPOS>UNITY_ATOM_ATTR
15 1
charge -1
@<TRIPOS>BOND
     1    14     7    1
     2    13     6    1
     3     7     6   ar
     4     7     8   ar
     5     6     5   ar
     6    16     8    1
     7     8     9   ar
     8     5     4    1
     9     5    10   ar
    10     4     3    1
    11     9    10   ar
    12     9    17    1
    13    10    18    1
    14    11     3    1
    15     3    12    1
    16     3     1    1
    17     1     2   ar
    18     1    15   ar
