LPU
  -OEChem-02242320033D

 24 24  0     0  0  0  0  0  0999 V2000
   -0.2390   -0.0040   -0.4490 N   0  0  0  0  0  0  0  0  0  0  0  0
    2.5810   -0.0200   -0.2290 C   0  0  0  0  0  0  0  0  0  0  0  0
    1.7810    1.2360    0.1260 C   0  0  0  0  0  0  0  0  0  0  0  0
    0.4810    1.2550   -0.6830 C   0  0  0  0  0  0  0  0  0  0  0  0
   -1.7200    0.0080    1.8610 C   0  0  0  0  0  0  0  0  0  0  0  0
   -1.8180    0.0060    0.0500 S   0  0  0  0  0  0  0  0  0  0  0  0
   -2.3270    1.2460   -0.4230 O   0  0  0  0  0  0  0  0  0  0  0  0
   -2.3420   -1.2280   -0.4200 O   0  0  0  0  0  0  0  0  0  0  0  0
    0.4670   -1.2730   -0.6730 C   0  0  0  0  0  0  0  0  0  0  0  0
    1.7680   -1.2640    0.1360 C   0  0  0  0  0  0  0  0  0  0  0  0
    3.8090   -0.0230    0.5010 O   0  0  0  0  0  0  0  0  0  0  0  0
    2.7930   -0.0240   -1.2980 H   0  0  0  0  0  0  0  0  0  0  0  0
    1.5480    1.2300    1.1910 H   0  0  0  0  0  0  0  0  0  0  0  0
    2.3710    2.1220   -0.1110 H   0  0  0  0  0  0  0  0  0  0  0  0
    0.7120    1.3530   -1.7430 H   0  0  0  0  0  0  0  0  0  0  0  0
   -0.1370    2.0940   -0.3620 H   0  0  0  0  0  0  0  0  0  0  0  0
   -1.1820    0.8950    2.1950 H   0  0  0  0  0  0  0  0  0  0  0  0
   -2.7270    0.0150    2.2790 H   0  0  0  0  0  0  0  0  0  0  0  0
   -1.1930   -0.8850    2.1970 H   0  0  0  0  0  0  0  0  0  0  0  0
   -0.1610   -2.1030   -0.3470 H   0  0  0  0  0  0  0  0  0  0  0  0
    0.6960   -1.3820   -1.7330 H   0  0  0  0  0  0  0  0  0  0  0  0
    2.3470   -2.1580   -0.0960 H   0  0  0  0  0  0  0  0  0  0  0  0
    1.5340   -1.2470    1.2000 H   0  0  0  0  0  0  0  0  0  0  0  0
    4.3770    0.7380    0.3190 H   0  0  0  0  0  0  0  0  0  0  0  0
  6  8  2  0  0  0  0
  1  4  1  0  0  0  0
  3  4  1  0  0  0  0
  1  6  1  0  0  0  0
  6  7  2  0  0  0  0
  5  6  1  0  0  0  0
  1  9  1  0  0  0  0
  2  3  1  0  0  0  0
  2 11  1  0  0  0  0
  2 10  1  0  0  0  0
  9 10  1  0  0  0  0
  2 12  1  0  0  0  0
  3 13  1  0  0  0  0
  3 14  1  0  0  0  0
  4 15  1  0  0  0  0
  4 16  1  0  0  0  0
  5 17  1  0  0  0  0
  5 18  1  0  0  0  0
  5 19  1  0  0  0  0
  9 20  1  0  0  0  0
  9 21  1  0  0  0  0
 10 22  1  0  0  0  0
 10 23  1  0  0  0  0
 11 24  1  0  0  0  0
M  END
> <OPENEYE_ISO_SMILES>
CS(=O)(=O)N1CCC(CC1)O

> <OPENEYE_INCHI>
InChI=1S/C6H13NO3S/c1-11(9,10)7-4-2-6(8)3-5-7/h6,8H,2-5H2,1H3

> <OPENEYE_INCHIKEY>
UPEFDWJLNXWMOW-UHFFFAOYSA-N

> <FORMULA>
C6H13NO3S

$$$$
