UHG
  -OEChem-02242320043D

 31 33  0     1  0  0  0  0  0999 V2000
    1.9440    1.0390   -0.4900 C   0  0  0  0  0  0  0  0  0  0  0  0
    0.5780    1.2030   -0.4150 C   0  0  0  0  0  0  0  0  0  0  0  0
   -0.2410    0.0990   -0.1910 C   0  0  0  0  0  0  0  0  0  0  0  0
    0.3260   -1.1760   -0.0410 C   0  0  0  0  0  0  0  0  0  0  0  0
    1.7070   -1.3210   -0.1190 C   0  0  0  0  0  0  0  0  0  0  0  0
   -3.2220   -1.9030    0.3260 C   0  0  0  0  0  0  0  0  0  0  0  0
   -2.7760    0.8080   -0.1130 C   0  0  0  0  0  0  0  0  0  0  0  0
   -5.4050    1.4260   -0.0150 Cl  0  0  0  0  0  0  0  0  0  0  0  0
   -4.0600    0.3310    0.0520 C   0  0  0  0  0  0  0  0  0  0  0  0
   -4.2800   -1.0210    0.2700 C   0  0  0  0  0  0  0  0  0  0  0  0
   -1.6990   -0.0730   -0.0590 C   0  0  0  0  0  0  0  0  0  0  0  0
   -1.9200   -1.4410    0.1620 C   0  0  0  0  0  0  0  0  0  0  0  0
   -0.6960   -2.0850    0.1700 N   0  0  0  0  0  0  0  0  0  0  0  0
    2.5050   -0.2210   -0.3470 C   0  0  0  0  0  0  0  0  0  0  0  0
    4.0010   -0.3870   -0.4310 C   0  0  1  0  0  0  0  0  0  0  0  0
    4.4890    0.0750   -1.8050 C   0  0  0  0  0  0  0  0  0  0  0  0
    4.6590    0.4440    0.6410 C   0  0  0  0  0  0  0  0  0  0  0  0
    3.9820    1.1030    1.3950 O   0  0  0  0  0  0  0  0  0  0  0  0
    5.9960    0.4520    0.7580 O   0  0  0  0  0  0  0  0  0  0  0  0
    2.5800    1.8940   -0.6650 H   0  0  0  0  0  0  0  0  0  0  0  0
    0.1430    2.1850   -0.5310 H   0  0  0  0  0  0  0  0  0  0  0  0
    2.1550   -2.2980   -0.0040 H   0  0  0  0  0  0  0  0  0  0  0  0
   -3.4040   -2.9540    0.4970 H   0  0  0  0  0  0  0  0  0  0  0  0
   -2.6070    1.8610   -0.2830 H   0  0  0  0  0  0  0  0  0  0  0  0
   -5.2890   -1.3860    0.3980 H   0  0  0  0  0  0  0  0  0  0  0  0
   -0.5710   -3.0380    0.3030 H   0  0  0  0  0  0  0  0  0  0  0  0
    4.2590   -1.4360   -0.2870 H   0  0  0  0  0  0  0  0  0  0  0  0
    5.5710   -0.0450   -1.8650 H   0  0  0  0  0  0  0  0  0  0  0  0
    4.0130   -0.5260   -2.5800 H   0  0  0  0  0  0  0  0  0  0  0  0
    4.2310    1.1240   -1.9490 H   0  0  0  0  0  0  0  0  0  0  0  0
    6.3720    0.9990    1.4610 H   0  0  0  0  0  0  0  0  0  0  0  0
 17 18  2  0  0  0  0
 15 17  1  0  0  0  0
 17 19  1  0  0  0  0
  4 13  1  0  0  0  0
 12 13  1  0  0  0  0
  4  5  2  0  0  0  0
  5 14  1  0  0  0  0
 14 15  1  0  0  0  0
 15 16  1  0  0  0  0
  3  4  1  0  0  0  0
  6 12  2  0  0  0  0
  6 10  1  0  0  0  0
  1 14  2  0  0  0  0
 11 12  1  0  0  0  0
  9 10  2  0  0  0  0
  3 11  1  0  0  0  0
  2  3  2  0  0  0  0
  7 11  2  0  0  0  0
  1  2  1  0  0  0  0
  7  9  1  0  0  0  0
  8  9  1  0  0  0  0
  1 20  1  0  0  0  0
  2 21  1  0  0  0  0
  5 22  1  0  0  0  0
  6 23  1  0  0  0  0
  7 24  1  0  0  0  0
 10 25  1  0  0  0  0
 13 26  1  0  0  0  0
 15 27  1  0  0  0  0
 16 28  1  0  0  0  0
 16 29  1  0  0  0  0
 16 30  1  0  0  0  0
 19 31  1  0  0  0  0
M  END
> <OPENEYE_ISO_SMILES>
C[C@H](c1ccc2c3cc(ccc3[nH]c2c1)Cl)C(=O)O

> <OPENEYE_INCHI>
InChI=1S/C15H12ClNO2/c1-8(15(18)19)9-2-4-11-12-7-10(16)3-5-13(12)17-14(11)6-9/h2-8,17H,1H3,(H,18,19)/t8-/m1/s1

> <OPENEYE_INCHIKEY>
PUXBGTOOZJQSKH-MRVPVSSYSA-N

> <FORMULA>
C15H12ClNO2

$$$$
