ZU3
  -OEChem-02242320043D

 93 94  0     1  0  0  0  0  0999 V2000
    3.6310   -0.4340    0.7150 C   0  0  0  0  0  0  0  0  0  0  0  0
    3.2900   -0.5030    1.8790 O   0  0  0  0  0  0  0  0  0  0  0  0
    4.7290   -1.0910    0.2950 O   0  0  0  0  0  0  0  0  0  0  0  0
    5.4560   -1.8610    1.2880 C   0  0  0  0  0  0  0  0  0  0  0  0
    6.6450   -2.5220    0.6400 C   0  0  0  0  0  0  0  0  0  0  0  0
    6.5210   -3.7840    0.0900 C   0  0  0  0  0  0  0  0  0  0  0  0
    7.6110   -4.3900   -0.5050 C   0  0  0  0  0  0  0  0  0  0  0  0
    8.8280   -3.7340   -0.5480 C   0  0  0  0  0  0  0  0  0  0  0  0
    8.9520   -2.4710    0.0010 C   0  0  0  0  0  0  0  0  0  0  0  0
    7.8610   -1.8650    0.5950 C   0  0  0  0  0  0  0  0  0  0  0  0
    2.9100    0.2990   -0.1570 N   0  0  0  0  0  0  0  0  0  0  0  0
    1.6570    0.9250    0.2730 C   0  0  1  0  0  0  0  0  0  0  0  0
    1.3940    2.1720   -0.5720 C   0  0  0  0  0  0  0  0  0  0  0  0
    2.5390    3.0800   -0.4730 N   0  0  0  0  0  0  0  0  0  0  0  0
    2.5760    4.2020   -1.2190 C   0  0  0  0  0  0  0  0  0  0  0  0
    0.5220   -0.0510    0.0970 C   0  0  0  0  0  0  0  0  0  0  0  0
    0.7380   -1.1600   -0.3450 O   0  0  0  0  0  0  0  0  0  0  0  0
    1.6610    4.4600   -1.9730 O   0  0  0  0  0  0  0  0  0  0  0  0
    3.7540    5.1360   -1.1170 C   0  0  0  0  0  0  0  0  0  0  0  0
    3.5470    6.3230   -2.0610 C   0  0  0  0  0  0  0  0  0  0  0  0
    3.8790    5.6440    0.3200 C   0  0  0  0  0  0  0  0  0  0  0  0
    5.0320    4.3900   -1.5080 C   0  0  0  0  0  0  0  0  0  0  0  0
   -0.7330    0.3090    0.4290 N   0  0  0  0  0  0  0  0  0  0  0  0
   -1.8370   -0.6400    0.2580 C   0  0  2  0  0  0  0  0  0  0  0  0
   -3.1290    0.1180    0.0960 C   0  0  0  0  0  0  0  0  0  0  0  0
   -3.1290    1.3310    0.1210 O   0  0  0  0  0  0  0  0  0  0  0  0
   -1.9270   -1.5450    1.4880 C   0  0  0  0  0  0  0  0  0  0  0  0
   -0.6650   -2.4050    1.5820 C   0  0  0  0  0  0  0  0  0  0  0  0
   -0.6980   -3.2190    2.8770 C   0  0  0  0  0  0  0  0  0  0  0  0
   -0.6050   -3.3550    0.3840 C   0  0  0  0  0  0  0  0  0  0  0  0
   -4.2860   -0.5520   -0.0770 N   0  0  0  0  0  0  0  0  0  0  0  0
   -5.5430    0.1840   -0.2350 C   0  0  1  0  0  0  0  0  0  0  0  0
   -6.5450   -0.6770   -1.0060 C   0  0  0  0  0  0  0  0  0  0  0  0
   -6.0300   -0.9080   -2.4280 C   0  0  1  0  0  0  0  0  0  0  0  0
   -6.1140    0.5200    1.1440 C   0  0  0  0  0  0  0  0  0  0  0  0
   -4.7760   -1.7530   -2.4070 C   0  0  0  0  0  0  0  0  0  0  0  0
   -3.6700   -1.3480   -2.1180 O   0  0  0  0  0  0  0  0  0  0  0  0
   -5.0650   -3.0200   -2.7530 N   0  0  0  0  0  0  0  0  0  0  0  0
   -6.4970   -3.1820   -3.0310 C   0  0  0  0  0  0  0  0  0  0  0  0
   -7.0410   -1.7520   -3.2390 C   0  0  0  0  0  0  0  0  0  0  0  0
   -5.1690    1.4820    1.8670 C   0  0  0  0  0  0  0  0  0  0  0  0
   -5.7310    1.8120    3.2260 C   0  0  0  0  0  0  0  0  0  0  0  0
   -4.9860    2.7460    4.1430 C   0  0  0  0  0  0  0  0  0  0  0  0
   -6.7800    1.3280    3.5790 O   0  0  0  0  0  0  0  0  0  0  0  0
    4.8000   -2.6240    1.7080 H   0  0  0  0  0  0  0  0  0  0  0  0
    5.7970   -1.1980    2.0830 H   0  0  0  0  0  0  0  0  0  0  0  0
    5.5710   -4.2970    0.1260 H   0  0  0  0  0  0  0  0  0  0  0  0
    7.5140   -5.3760   -0.9340 H   0  0  0  0  0  0  0  0  0  0  0  0
    9.6800   -4.2070   -1.0130 H   0  0  0  0  0  0  0  0  0  0  0  0
    9.9010   -1.9570   -0.0380 H   0  0  0  0  0  0  0  0  0  0  0  0
    7.9590   -0.8790    1.0250 H   0  0  0  0  0  0  0  0  0  0  0  0
    3.2210    0.4120   -1.0690 H   0  0  0  0  0  0  0  0  0  0  0  0
    1.7340    1.2070    1.3230 H   0  0  0  0  0  0  0  0  0  0  0  0
    1.2490    1.8820   -1.6130 H   0  0  0  0  0  0  0  0  0  0  0  0
    0.4980    2.6760   -0.2080 H   0  0  0  0  0  0  0  0  0  0  0  0
    3.2710    2.8740    0.1290 H   0  0  0  0  0  0  0  0  0  0  0  0
    2.6370    6.8540   -1.7830 H   0  0  0  0  0  0  0  0  0  0  0  0
    4.4000    6.9980   -1.9870 H   0  0  0  0  0  0  0  0  0  0  0  0
    3.4580    5.9610   -3.0850 H   0  0  0  0  0  0  0  0  0  0  0  0
    4.0270    4.7990    0.9930 H   0  0  0  0  0  0  0  0  0  0  0  0
    4.7320    6.3200    0.3940 H   0  0  0  0  0  0  0  0  0  0  0  0
    2.9690    6.1750    0.5990 H   0  0  0  0  0  0  0  0  0  0  0  0
    4.9420    4.0290   -2.5320 H   0  0  0  0  0  0  0  0  0  0  0  0
    5.8840    5.0660   -1.4340 H   0  0  0  0  0  0  0  0  0  0  0  0
    5.1790    3.5450   -0.8360 H   0  0  0  0  0  0  0  0  0  0  0  0
   -0.9060    1.1960    0.7830 H   0  0  0  0  0  0  0  0  0  0  0  0
   -1.6580   -1.2480   -0.6290 H   0  0  0  0  0  0  0  0  0  0  0  0
   -2.0160   -0.9320    2.3850 H   0  0  0  0  0  0  0  0  0  0  0  0
   -2.8010   -2.1900    1.4010 H   0  0  0  0  0  0  0  0  0  0  0  0
    0.2140   -1.7610    1.5800 H   0  0  0  0  0  0  0  0  0  0  0  0
   -1.5770   -3.8630    2.8790 H   0  0  0  0  0  0  0  0  0  0  0  0
    0.2010   -3.8320    2.9440 H   0  0  0  0  0  0  0  0  0  0  0  0
   -0.7410   -2.5420    3.7300 H   0  0  0  0  0  0  0  0  0  0  0  0
   -1.4840   -3.9990    0.3860 H   0  0  0  0  0  0  0  0  0  0  0  0
   -0.5810   -2.7750   -0.5390 H   0  0  0  0  0  0  0  0  0  0  0  0
    0.2940   -3.9670    0.4510 H   0  0  0  0  0  0  0  0  0  0  0  0
   -4.2860   -1.5220   -0.0970 H   0  0  0  0  0  0  0  0  0  0  0  0
   -5.3570    1.1060   -0.7850 H   0  0  0  0  0  0  0  0  0  0  0  0
   -6.6630   -1.6360   -0.5020 H   0  0  0  0  0  0  0  0  0  0  0  0
   -7.5070   -0.1660   -1.0470 H   0  0  0  0  0  0  0  0  0  0  0  0
   -5.8400    0.0440   -2.9240 H   0  0  0  0  0  0  0  0  0  0  0  0
   -7.0910    0.9880    1.0290 H   0  0  0  0  0  0  0  0  0  0  0  0
   -6.2160   -0.3960    1.7270 H   0  0  0  0  0  0  0  0  0  0  0  0
   -4.4120   -3.7340   -2.8110 H   0  0  0  0  0  0  0  0  0  0  0  0
   -6.6410   -3.7760   -3.9340 H   0  0  0  0  0  0  0  0  0  0  0  0
   -6.9940   -3.6560   -2.1850 H   0  0  0  0  0  0  0  0  0  0  0  0
   -8.0470   -1.6540   -2.8310 H   0  0  0  0  0  0  0  0  0  0  0  0
   -7.0220   -1.4760   -4.2940 H   0  0  0  0  0  0  0  0  0  0  0  0
   -4.1920    1.0130    1.9830 H   0  0  0  0  0  0  0  0  0  0  0  0
   -5.0660    2.3970    1.2840 H   0  0  0  0  0  0  0  0  0  0  0  0
   -5.3110    3.7710    3.9610 H   0  0  0  0  0  0  0  0  0  0  0  0
   -5.1910    2.4790    5.1800 H   0  0  0  0  0  0  0  0  0  0  0  0
   -3.9150    2.6650    3.9520 H   0  0  0  0  0  0  0  0  0  0  0  0
  9 10  2  0  0  0  0
  8  9  1  0  0  0  0
  5 10  1  0  0  0  0
  5  6  2  0  0  0  0
  4  5  1  0  0  0  0
  6  7  1  0  0  0  0
  7  8  2  0  0  0  0
  3  4  1  0  0  0  0
  1  3  1  0  0  0  0
  1  2  2  0  0  0  0
  1 11  1  0  0  0  0
 11 12  1  0  0  0  0
 12 13  1  0  0  0  0
 12 16  1  0  0  0  0
 13 14  1  0  0  0  0
 14 15  1  0  0  0  0
 15 18  2  0  0  0  0
 15 19  1  0  0  0  0
 16 23  1  0  0  0  0
 16 17  2  0  0  0  0
 23 24  1  0  0  0  0
 24 25  1  0  0  0  0
 24 27  1  0  0  0  0
 25 26  2  0  0  0  0
 25 31  1  0  0  0  0
 27 28  1  0  0  0  0
 19 20  1  0  0  0  0
 19 21  1  0  0  0  0
 19 22  1  0  0  0  0
 31 32  1  0  0  0  0
 28 29  1  0  0  0  0
 28 30  1  0  0  0  0
 32 33  1  0  0  0  0
 32 35  1  0  0  0  0
 33 34  1  0  0  0  0
 34 36  1  0  0  0  0
 34 40  1  0  0  0  0
 35 41  1  0  0  0  0
 36 37  2  0  0  0  0
 36 38  1  0  0  0  0
 38 39  1  0  0  0  0
 39 40  1  0  0  0  0
 41 42  1  0  0  0  0
 42 43  1  0  0  0  0
 42 44  2  0  0  0  0
  9 50  1  0  0  0  0
 10 51  1  0  0  0  0
  6 47  1  0  0  0  0
  7 48  1  0  0  0  0
  8 49  1  0  0  0  0
  4 45  1  0  0  0  0
  4 46  1  0  0  0  0
 11 52  1  0  0  0  0
 12 53  1  0  0  0  0
 13 54  1  0  0  0  0
 13 55  1  0  0  0  0
 14 56  1  0  0  0  0
 23 66  1  0  0  0  0
 24 67  1  0  0  0  0
 27 68  1  0  0  0  0
 27 69  1  0  0  0  0
 31 77  1  0  0  0  0
 28 70  1  0  0  0  0
 29 71  1  0  0  0  0
 29 72  1  0  0  0  0
 29 73  1  0  0  0  0
 30 74  1  0  0  0  0
 30 75  1  0  0  0  0
 30 76  1  0  0  0  0
 32 78  1  0  0  0  0
 33 79  1  0  0  0  0
 33 80  1  0  0  0  0
 34 81  1  0  0  0  0
 35 82  1  0  0  0  0
 35 83  1  0  0  0  0
 38 84  1  0  0  0  0
 39 85  1  0  0  0  0
 39 86  1  0  0  0  0
 40 87  1  0  0  0  0
 40 88  1  0  0  0  0
 20 57  1  0  0  0  0
 20 58  1  0  0  0  0
 20 59  1  0  0  0  0
 21 60  1  0  0  0  0
 21 61  1  0  0  0  0
 21 62  1  0  0  0  0
 22 63  1  0  0  0  0
 22 64  1  0  0  0  0
 22 65  1  0  0  0  0
 41 89  1  0  0  0  0
 41 90  1  0  0  0  0
 43 91  1  0  0  0  0
 43 92  1  0  0  0  0
 43 93  1  0  0  0  0
M  END
> <OPENEYE_ISO_SMILES>
CC(C)C[C@@H](C(=O)N[C@H](CCC(=O)C)C[C@@H]1CCNC1=O)NC(=O)[C@H](CNC(=O)C(C)(C)C)NC(=O)OCc2ccccc2

> <OPENEYE_INCHI>
InChI=1S/C32H49N5O7/c1-20(2)16-25(28(40)35-24(13-12-21(3)38)17-23-14-15-33-27(23)39)36-29(41)26(18-34-30(42)32(4,5)6)37-31(43)44-19-22-10-8-7-9-11-22/h7-11,20,23-26H,12-19H2,1-6H3,(H,33,39)(H,34,42)(H,35,40)(H,36,41)(H,37,43)/t23-,24+,25-,26-/m0/s1

> <OPENEYE_INCHIKEY>
IEQRDAZPCPYZAJ-QYOOZWMWSA-N

> <FORMULA>
C32H49N5O7

$$$$
