U1M
  -OEChem-02242320043D

 40 41  0     0  0  0  0  0  0999 V2000
   -3.3900   -0.1140   -0.0880 N   0  0  0  0  0  0  0  0  0  0  0  0
    2.0390    0.4180    0.0340 C   0  0  0  0  0  0  0  0  0  0  0  0
    2.3270   -0.7590    0.6990 C   0  0  0  0  0  0  0  0  0  0  0  0
    1.4150   -1.2490    1.7940 C   0  0  0  0  0  0  0  0  0  0  0  0
    3.4520   -1.4870    0.3580 C   0  0  0  0  0  0  0  0  0  0  0  0
   -1.2830   -0.5160    1.0740 C   0  0  0  0  0  0  0  0  0  0  0  0
   -2.8200    0.8100   -1.0780 C   0  0  0  0  0  0  0  0  0  0  0  0
   -5.0780   -0.7840   -1.7670 C   0  0  0  0  0  0  0  0  0  0  0  0
   -0.7130    0.4080    0.0850 N   0  0  0  0  0  0  0  0  0  0  0  0
    5.5150   -1.8310   -1.0170 C   0  0  0  0  0  0  0  0  0  0  0  0
    0.6110    1.4660    1.8780 O   0  0  0  0  0  0  0  0  0  0  0  0
    4.2880   -1.0380   -0.6460 C   0  0  0  0  0  0  0  0  0  0  0  0
   -1.3300    0.4890   -1.2470 C   0  0  0  0  0  0  0  0  0  0  0  0
   -4.4570   -0.8780   -0.3980 C   0  0  0  0  0  0  0  0  0  0  0  0
    4.0000    0.1400   -1.3110 C   0  0  0  0  0  0  0  0  0  0  0  0
    2.8760    0.8680   -0.9700 C   0  0  0  0  0  0  0  0  0  0  0  0
   -2.7730   -0.1950    1.2430 C   0  0  0  0  0  0  0  0  0  0  0  0
    0.5660    2.4590   -0.4150 O   0  0  0  0  0  0  0  0  0  0  0  0
   -4.9150   -1.6410    0.4260 O   0  0  0  0  0  0  0  0  0  0  0  0
    0.6010    1.3420    0.4630 S   0  0  0  0  0  0  0  0  0  0  0  0
    0.6460   -1.8920    1.3660 H   0  0  0  0  0  0  0  0  0  0  0  0
    1.9950   -1.8130    2.5240 H   0  0  0  0  0  0  0  0  0  0  0  0
    0.9450   -0.3960    2.2830 H   0  0  0  0  0  0  0  0  0  0  0  0
    3.6770   -2.4070    0.8770 H   0  0  0  0  0  0  0  0  0  0  0  0
   -1.1680   -1.5430    0.7260 H   0  0  0  0  0  0  0  0  0  0  0  0
   -0.7700   -0.3940    2.0280 H   0  0  0  0  0  0  0  0  0  0  0  0
   -3.3310    0.6860   -2.0330 H   0  0  0  0  0  0  0  0  0  0  0  0
   -2.9350    1.8370   -0.7290 H   0  0  0  0  0  0  0  0  0  0  0  0
   -4.6000   -1.5020   -2.4340 H   0  0  0  0  0  0  0  0  0  0  0  0
   -6.1430   -1.0060   -1.6990 H   0  0  0  0  0  0  0  0  0  0  0  0
   -4.9420    0.2230   -2.1600 H   0  0  0  0  0  0  0  0  0  0  0  0
    5.2610   -2.5480   -1.7980 H   0  0  0  0  0  0  0  0  0  0  0  0
    6.2890   -1.1550   -1.3800 H   0  0  0  0  0  0  0  0  0  0  0  0
    5.8810   -2.3650   -0.1400 H   0  0  0  0  0  0  0  0  0  0  0  0
   -1.2170   -0.4660   -1.7610 H   0  0  0  0  0  0  0  0  0  0  0  0
   -0.8490    1.2780   -1.8260 H   0  0  0  0  0  0  0  0  0  0  0  0
    4.6530    0.4910   -2.0960 H   0  0  0  0  0  0  0  0  0  0  0  0
    2.6500    1.7880   -1.4890 H   0  0  0  0  0  0  0  0  0  0  0  0
   -2.8860    0.7600    1.7570 H   0  0  0  0  0  0  0  0  0  0  0  0
   -3.2540   -0.9840    1.8220 H   0  0  0  0  0  0  0  0  0  0  0  0
 10 12  1  0  0  0  0
 12 15  1  0  0  0  0
 15 16  2  0  0  0  0
  2 16  1  0  0  0  0
  2  3  2  0  0  0  0
  3  4  1  0  0  0  0
  3  5  1  0  0  0  0
  5 12  2  0  0  0  0
  2 20  1  0  0  0  0
 11 20  2  0  0  0  0
 18 20  2  0  0  0  0
  9 20  1  0  0  0  0
  6  9  1  0  0  0  0
  6 17  1  0  0  0  0
  1 17  1  0  0  0  0
  1  7  1  0  0  0  0
  7 13  1  0  0  0  0
  9 13  1  0  0  0  0
  1 14  1  0  0  0  0
 14 19  2  0  0  0  0
  8 14  1  0  0  0  0
  4 21  1  0  0  0  0
  4 22  1  0  0  0  0
  4 23  1  0  0  0  0
  5 24  1  0  0  0  0
  6 25  1  0  0  0  0
  6 26  1  0  0  0  0
  7 27  1  0  0  0  0
  7 28  1  0  0  0  0
  8 29  1  0  0  0  0
  8 30  1  0  0  0  0
  8 31  1  0  0  0  0
 10 32  1  0  0  0  0
 10 33  1  0  0  0  0
 10 34  1  0  0  0  0
 13 35  1  0  0  0  0
 13 36  1  0  0  0  0
 15 37  1  0  0  0  0
 16 38  1  0  0  0  0
 17 39  1  0  0  0  0
 17 40  1  0  0  0  0
M  END
> <OPENEYE_ISO_SMILES>
Cc1ccc(c(c1)C)S(=O)(=O)N2CCN(CC2)C(=O)C

> <OPENEYE_INCHI>
InChI=1S/C14H20N2O3S/c1-11-4-5-14(12(2)10-11)20(18,19)16-8-6-15(7-9-16)13(3)17/h4-5,10H,6-9H2,1-3H3

> <OPENEYE_INCHIKEY>
VKTWNRQXKPNSFH-UHFFFAOYSA-N

> <FORMULA>
C14H20N2O3S

$$$$
