AW4
  -OEChem-02242320013D

 67 68  0     1  0  0  0  0  0999 V2000
    3.1350    2.5910    0.6900 C   0  0  0  0  0  0  0  0  0  0  0  0
    4.9240    3.5850    1.7900 C   0  0  0  0  0  0  0  0  0  0  0  0
    5.2190    3.7390    0.2820 C   0  0  0  0  0  0  0  0  0  0  0  0
    1.6740   -1.4680    1.7790 C   0  0  0  0  0  0  0  0  0  0  0  0
   -2.0410    0.4180    0.6080 O   0  0  0  0  0  0  0  0  0  0  0  0
   -1.9610   -0.1140   -0.4820 C   0  0  0  0  0  0  0  0  0  0  0  0
   -0.7610   -0.5070   -0.9530 N   0  0  0  0  0  0  0  0  0  0  0  0
    0.4300   -0.4000   -0.1060 C   0  0  2  0  0  0  0  0  0  0  0  0
    1.6510   -0.2390   -0.9740 C   0  0  0  0  0  0  0  0  0  0  0  0
    2.8250    0.1320   -0.4240 N   0  0  0  0  0  0  0  0  0  0  0  0
    3.9770    0.4210   -1.2820 C   0  0  2  0  0  0  0  0  0  0  0  0
    4.7090   -0.8830   -1.6080 C   0  0  1  0  0  0  0  0  0  0  0  0
    5.8970   -0.5900   -2.3470 O   0  0  0  0  0  0  0  0  0  0  0  0
    4.9280    1.3720   -0.5540 C   0  0  0  0  0  0  0  0  0  0  0  0
    4.2360    2.7200   -0.3390 C   0  0  1  0  0  0  0  0  0  0  0  0
    3.5440    3.0900    1.8690 N   0  0  0  0  0  0  0  0  0  0  0  0
    2.0410    2.1110    0.4810 O   0  0  0  0  0  0  0  0  0  0  0  0
    1.5780   -0.4430   -2.1680 O   0  0  0  0  0  0  0  0  0  0  0  0
    0.5690   -1.6670    0.7400 C   0  0  0  0  0  0  0  0  0  0  0  0
    1.2520   -0.3820    2.7700 C   0  0  0  0  0  0  0  0  0  0  0  0
    1.9110   -2.7800    2.5300 C   0  0  0  0  0  0  0  0  0  0  0  0
   -3.0700   -0.3100   -1.2180 O   0  0  0  0  0  0  0  0  0  0  0  0
   -4.3280    0.1380   -0.6480 C   0  0  0  0  0  0  0  0  0  0  0  0
   -5.4680   -0.1680   -1.6220 C   0  0  0  0  0  0  0  0  0  0  0  0
   -6.7730    0.2980   -1.0300 C   0  0  0  0  0  0  0  0  0  0  0  0
   -7.5180   -0.5590   -0.2420 C   0  0  0  0  0  0  0  0  0  0  0  0
   -8.7140   -0.1300    0.3070 C   0  0  0  0  0  0  0  0  0  0  0  0
   -9.6510   -1.2050    1.2970 Cl  0  0  0  0  0  0  0  0  0  0  0  0
   -9.1630    1.1570    0.0660 C   0  0  0  0  0  0  0  0  0  0  0  0
   -8.4160    2.0130   -0.7220 C   0  0  0  0  0  0  0  0  0  0  0  0
   -7.2220    1.5830   -1.2700 C   0  0  0  0  0  0  0  0  0  0  0  0
    5.6090    2.8650    2.2390 H   0  0  0  0  0  0  0  0  0  0  0  0
    5.0080    4.5490    2.2910 H   0  0  0  0  0  0  0  0  0  0  0  0
    4.9960    4.7510   -0.0570 H   0  0  0  0  0  0  0  0  0  0  0  0
    6.2520    3.4730    0.0580 H   0  0  0  0  0  0  0  0  0  0  0  0
    2.5930   -1.1650    1.2780 H   0  0  0  0  0  0  0  0  0  0  0  0
   -0.6850   -0.8600   -1.8540 H   0  0  0  0  0  0  0  0  0  0  0  0
    0.3330    0.4650    0.5490 H   0  0  0  0  0  0  0  0  0  0  0  0
    2.9060    0.2070    0.5390 H   0  0  0  0  0  0  0  0  0  0  0  0
    3.6340    0.8860   -2.2060 H   0  0  0  0  0  0  0  0  0  0  0  0
    4.0600   -1.5250   -2.2040 H   0  0  0  0  0  0  0  0  0  0  0  0
    6.5220   -0.0210   -1.8770 H   0  0  0  0  0  0  0  0  0  0  0  0
    5.2010    0.9450    0.4110 H   0  0  0  0  0  0  0  0  0  0  0  0
    5.8270    1.5170   -1.1550 H   0  0  0  0  0  0  0  0  0  0  0  0
    3.8360    3.0970   -1.2800 H   0  0  0  0  0  0  0  0  0  0  0  0
    2.9970    3.1200    2.6700 H   0  0  0  0  0  0  0  0  0  0  0  0
    0.8240   -2.5080    0.0950 H   0  0  0  0  0  0  0  0  0  0  0  0
   -0.3740   -1.8710    1.2470 H   0  0  0  0  0  0  0  0  0  0  0  0
    2.0380   -0.2410    3.5120 H   0  0  0  0  0  0  0  0  0  0  0  0
    1.0850    0.5530    2.2360 H   0  0  0  0  0  0  0  0  0  0  0  0
    0.3310   -0.6840    3.2700 H   0  0  0  0  0  0  0  0  0  0  0  0
    2.2110   -3.5540    1.8230 H   0  0  0  0  0  0  0  0  0  0  0  0
    2.6980   -2.6380    3.2700 H   0  0  0  0  0  0  0  0  0  0  0  0
    0.9910   -3.0830    3.0310 H   0  0  0  0  0  0  0  0  0  0  0  0
   -4.5060   -0.3820    0.2940 H   0  0  0  0  0  0  0  0  0  0  0  0
   -4.2830    1.2120   -0.4670 H   0  0  0  0  0  0  0  0  0  0  0  0
   -5.2900    0.3520   -2.5630 H   0  0  0  0  0  0  0  0  0  0  0  0
   -5.5130   -1.2420   -1.8030 H   0  0  0  0  0  0  0  0  0  0  0  0
   -7.1680   -1.5630   -0.0550 H   0  0  0  0  0  0  0  0  0  0  0  0
  -10.0960    1.4920    0.4930 H   0  0  0  0  0  0  0  0  0  0  0  0
   -8.7660    3.0170   -0.9100 H   0  0  0  0  0  0  0  0  0  0  0  0
   -6.6370    2.2540   -1.8820 H   0  0  0  0  0  0  0  0  0  0  0  0
    5.1500   -1.7310   -0.0670 S   0  0  0  0  0  0  0  0  0  0  0  0
    5.9740   -2.9300   -0.5150 O   0  0  0  0  0  0  0  0  0  0  0  0
    6.0580   -0.9450    0.6930 O   0  0  0  0  0  0  0  0  0  0  0  0
    3.9970   -2.3030    0.5350 O   0  0  0  0  0  0  0  0  0  0  0  0
    6.2850   -3.4870    0.2120 H   0  0  0  0  0  0  0  0  0  0  0  0
 27 28  1  0  0  0  0
  4 20  1  0  0  0  0
  4 21  1  0  0  0  0
  4 19  1  0  0  0  0
 27 29  2  0  0  0  0
 26 27  1  0  0  0  0
 29 30  1  0  0  0  0
  8 19  1  0  0  0  0
 25 26  2  0  0  0  0
 30 31  2  0  0  0  0
  7  8  1  0  0  0  0
  6  7  1  0  0  0  0
  8  9  1  0  0  0  0
 25 31  1  0  0  0  0
 24 25  1  0  0  0  0
  6 22  1  0  0  0  0
 22 23  1  0  0  0  0
  5  6  2  0  0  0  0
  9 18  2  0  0  0  0
  9 10  1  0  0  0  0
 23 24  1  0  0  0  0
 10 11  1  0  0  0  0
 11 12  1  0  0  0  0
 11 14  1  0  0  0  0
 12 13  1  0  0  0  0
 14 15  1  0  0  0  0
  3 15  1  0  0  0  0
  1 15  1  0  0  0  0
  2  3  1  0  0  0  0
  2 16  1  0  0  0  0
  1 17  2  0  0  0  0
  1 16  1  0  0  0  0
  2 32  1  0  0  0  0
  2 33  1  0  0  0  0
  3 34  1  0  0  0  0
  3 35  1  0  0  0  0
  4 36  1  0  0  0  0
  7 37  1  0  0  0  0
  8 38  1  0  0  0  0
 10 39  1  0  0  0  0
 11 40  1  0  0  0  0
 12 41  1  0  0  0  0
 13 42  1  0  0  0  0
 14 43  1  0  0  0  0
 14 44  1  0  0  0  0
 15 45  1  0  0  0  0
 16 46  1  0  0  0  0
 19 47  1  0  0  0  0
 19 48  1  0  0  0  0
 20 49  1  0  0  0  0
 20 50  1  0  0  0  0
 20 51  1  0  0  0  0
 21 52  1  0  0  0  0
 21 53  1  0  0  0  0
 21 54  1  0  0  0  0
 23 55  1  0  0  0  0
 23 56  1  0  0  0  0
 24 57  1  0  0  0  0
 24 58  1  0  0  0  0
 26 59  1  0  0  0  0
 29 60  1  0  0  0  0
 30 61  1  0  0  0  0
 31 62  1  0  0  0  0
 12 63  1  0  0  0  0
 63 64  1  0  0  0  0
 63 65  2  0  0  0  0
 63 66  2  0  0  0  0
 64 67  1  0  0  0  0
M  END
> <OPENEYE_ISO_SMILES>
CC(C)C[C@@H](C(=O)N[C@@H](C[C@@H]1CCNC1=O)[C@@H](O)S(=O)(=O)O)NC(=O)OCCc2cccc(c2)Cl

> <OPENEYE_INCHI>
InChI=1S/C22H32ClN3O8S/c1-13(2)10-17(26-22(30)34-9-7-14-4-3-5-16(23)11-14)20(28)25-18(21(29)35(31,32)33)12-15-6-8-24-19(15)27/h3-5,11,13,15,17-18,21,29H,6-10,12H2,1-2H3,(H,24,27)(H,25,28)(H,26,30)(H,31,32,33)/t15-,17-,18-,21-/m0/s1

> <OPENEYE_INCHIKEY>
OKWOXOSOFIECOU-DBSRCYSRSA-N

> <FORMULA>
C22H32ClN3O8S

$$$$
