B3G
  -OEChem-02242320013D

 67 68  0     1  0  0  0  0  0999 V2000
    3.7580    2.6430    0.5740 C   0  0  0  0  0  0  0  0  0  0  0  0
    5.6750    3.4130    1.6370 C   0  0  0  0  0  0  0  0  0  0  0  0
    5.9890    3.4480    0.1260 C   0  0  0  0  0  0  0  0  0  0  0  0
   -0.3510   -1.2260    1.9100 C   0  0  0  0  0  0  0  0  0  0  0  0
   -1.8580    0.5960    0.6290 O   0  0  0  0  0  0  0  0  0  0  0  0
   -1.7500    0.0500   -0.4510 C   0  0  0  0  0  0  0  0  0  0  0  0
   -0.5350   -0.3310   -0.8940 N   0  0  0  0  0  0  0  0  0  0  0  0
    0.6540   -0.0870   -0.0740 C   0  0  2  0  0  0  0  0  0  0  0  0
    1.8700   -0.0130   -0.9610 C   0  0  0  0  0  0  0  0  0  0  0  0
    3.0850    0.2060   -0.4220 N   0  0  0  0  0  0  0  0  0  0  0  0
    4.2670    0.2780   -1.2840 C   0  0  2  0  0  0  0  0  0  0  0  0
    4.7980   -1.1340   -1.5410 C   0  0  2  0  0  0  0  0  0  0  0  0
    3.8310   -1.8780   -2.2860 O   0  0  0  0  0  0  0  0  0  0  0  0
    5.3500    1.1120   -0.5970 C   0  0  0  0  0  0  0  0  0  0  0  0
    4.8660    2.5560   -0.4520 C   0  0  1  0  0  0  0  0  0  0  0  0
    4.2370    3.1340    1.7310 N   0  0  0  0  0  0  0  0  0  0  0  0
    2.6050    2.3220    0.3810 O   0  0  0  0  0  0  0  0  0  0  0  0
    1.7550   -0.1500   -2.1610 O   0  0  0  0  0  0  0  0  0  0  0  0
    0.8240   -1.2290    0.9300 C   0  0  0  0  0  0  0  0  0  0  0  0
   -0.2470   -2.4400    2.8350 C   0  0  0  0  0  0  0  0  0  0  0  0
   -0.3160    0.0560    2.7450 C   0  0  0  0  0  0  0  0  0  0  0  0
   -2.8420   -0.1740   -1.2050 O   0  0  0  0  0  0  0  0  0  0  0  0
   -4.1170    0.2640   -0.6650 C   0  0  0  0  0  0  0  0  0  0  0  0
   -5.2330   -0.0740   -1.6550 C   0  0  0  0  0  0  0  0  0  0  0  0
   -6.5560    0.3800   -1.0940 C   0  0  0  0  0  0  0  0  0  0  0  0
   -7.3040   -0.4760   -0.3080 C   0  0  0  0  0  0  0  0  0  0  0  0
   -8.5160   -0.0570    0.2120 C   0  0  0  0  0  0  0  0  0  0  0  0
   -9.4550   -1.1320    1.2010 Cl  0  0  0  0  0  0  0  0  0  0  0  0
   -8.9790    1.2180   -0.0560 C   0  0  0  0  0  0  0  0  0  0  0  0
   -8.2310    2.0740   -0.8430 C   0  0  0  0  0  0  0  0  0  0  0  0
   -7.0200    1.6550   -1.3620 C   0  0  0  0  0  0  0  0  0  0  0  0
    5.1080   -1.9610    0.0430 S   0  0  0  0  0  0  0  0  0  0  0  0
    6.2450    2.6230    2.1250 H   0  0  0  0  0  0  0  0  0  0  0  0
    5.9020    4.3780    2.0910 H   0  0  0  0  0  0  0  0  0  0  0  0
    5.9200    4.4640   -0.2640 H   0  0  0  0  0  0  0  0  0  0  0  0
    6.9710    3.0210   -0.0780 H   0  0  0  0  0  0  0  0  0  0  0  0
   -1.2880   -1.2720    1.3540 H   0  0  0  0  0  0  0  0  0  0  0  0
   -0.4480   -0.7670   -1.7560 H   0  0  0  0  0  0  0  0  0  0  0  0
    0.5380    0.8540    0.4630 H   0  0  0  0  0  0  0  0  0  0  0  0
    3.1780    0.3160    0.5380 H   0  0  0  0  0  0  0  0  0  0  0  0
    3.9970    0.7430   -2.2320 H   0  0  0  0  0  0  0  0  0  0  0  0
    5.7270   -1.0760   -2.1090 H   0  0  0  0  0  0  0  0  0  0  0  0
    2.9780   -1.9700   -1.8410 H   0  0  0  0  0  0  0  0  0  0  0  0
    5.5570    0.6980    0.3900 H   0  0  0  0  0  0  0  0  0  0  0  0
    6.2600    1.0920   -1.1970 H   0  0  0  0  0  0  0  0  0  0  0  0
    4.5270    2.9420   -1.4130 H   0  0  0  0  0  0  0  0  0  0  0  0
    3.7010    3.2840    2.5250 H   0  0  0  0  0  0  0  0  0  0  0  0
    1.7550   -1.0940    1.4800 H   0  0  0  0  0  0  0  0  0  0  0  0
    0.8510   -2.1800    0.3980 H   0  0  0  0  0  0  0  0  0  0  0  0
   -1.0850   -2.4380    3.5330 H   0  0  0  0  0  0  0  0  0  0  0  0
   -0.2730   -3.3530    2.2400 H   0  0  0  0  0  0  0  0  0  0  0  0
    0.6890   -2.3950    3.3910 H   0  0  0  0  0  0  0  0  0  0  0  0
   -0.3900    0.9210    2.0860 H   0  0  0  0  0  0  0  0  0  0  0  0
   -1.1530    0.0580    3.4430 H   0  0  0  0  0  0  0  0  0  0  0  0
    0.6210    0.1010    3.3000 H   0  0  0  0  0  0  0  0  0  0  0  0
   -4.3040   -0.2450    0.2810 H   0  0  0  0  0  0  0  0  0  0  0  0
   -4.0910    1.3410   -0.4990 H   0  0  0  0  0  0  0  0  0  0  0  0
   -5.0460    0.4350   -2.6010 H   0  0  0  0  0  0  0  0  0  0  0  0
   -5.2590   -1.1510   -1.8200 H   0  0  0  0  0  0  0  0  0  0  0  0
   -6.9420   -1.4720   -0.0990 H   0  0  0  0  0  0  0  0  0  0  0  0
   -9.9250    1.5460    0.3490 H   0  0  0  0  0  0  0  0  0  0  0  0
   -8.5920    3.0700   -1.0520 H   0  0  0  0  0  0  0  0  0  0  0  0
   -6.4330    2.3250   -1.9730 H   0  0  0  0  0  0  0  0  0  0  0  0
    3.8840   -2.2230    0.7170 O   0  0  0  0  0  0  0  0  0  0  0  0
    5.6260   -3.3390   -0.3430 O   0  0  0  0  0  0  0  0  0  0  0  0
    6.2000   -1.3530    0.7180 O   0  0  0  0  0  0  0  0  0  0  0  0
    5.8380   -3.9060    0.4120 H   0  0  0  0  0  0  0  0  0  0  0  0
 27 28  1  0  0  0  0
  4 20  1  0  0  0  0
  4 21  1  0  0  0  0
  4 19  1  0  0  0  0
 27 29  2  0  0  0  0
 26 27  1  0  0  0  0
 29 30  1  0  0  0  0
  8 19  1  0  0  0  0
 25 26  2  0  0  0  0
 30 31  2  0  0  0  0
  7  8  1  0  0  0  0
  6  7  1  0  0  0  0
  8  9  1  0  0  0  0
 25 31  1  0  0  0  0
 24 25  1  0  0  0  0
  6 22  1  0  0  0  0
 22 23  1  0  0  0  0
  5  6  2  0  0  0  0
  9 18  2  0  0  0  0
  9 10  1  0  0  0  0
 23 24  1  0  0  0  0
 10 11  1  0  0  0  0
 12 13  1  0  0  0  0
 12 32  1  0  0  0  0
 11 12  1  0  0  0  0
 11 14  1  0  0  0  0
 14 15  1  0  0  0  0
  3 15  1  0  0  0  0
  1 15  1  0  0  0  0
  2  3  1  0  0  0  0
  2 16  1  0  0  0  0
  1 17  2  0  0  0  0
  1 16  1  0  0  0  0
  2 33  1  0  0  0  0
  2 34  1  0  0  0  0
  3 35  1  0  0  0  0
  3 36  1  0  0  0  0
  4 37  1  0  0  0  0
  7 38  1  0  0  0  0
  8 39  1  0  0  0  0
 10 40  1  0  0  0  0
 11 41  1  0  0  0  0
 12 42  1  0  0  0  0
 13 43  1  0  0  0  0
 14 44  1  0  0  0  0
 14 45  1  0  0  0  0
 15 46  1  0  0  0  0
 16 47  1  0  0  0  0
 19 48  1  0  0  0  0
 19 49  1  0  0  0  0
 20 50  1  0  0  0  0
 20 51  1  0  0  0  0
 20 52  1  0  0  0  0
 21 53  1  0  0  0  0
 21 54  1  0  0  0  0
 21 55  1  0  0  0  0
 23 56  1  0  0  0  0
 23 57  1  0  0  0  0
 24 58  1  0  0  0  0
 24 59  1  0  0  0  0
 26 60  1  0  0  0  0
 29 61  1  0  0  0  0
 30 62  1  0  0  0  0
 31 63  1  0  0  0  0
 32 64  2  0  0  0  0
 32 65  1  0  0  0  0
 32 66  2  0  0  0  0
 65 67  1  0  0  0  0
M  END
> <OPENEYE_ISO_SMILES>
CC(C)C[C@@H](C(=O)N[C@@H](C[C@@H]1CCNC1=O)[C@H](O)S(=O)(=O)O)NC(=O)OCCc2cccc(c2)Cl

> <OPENEYE_INCHI>
InChI=1S/C22H32ClN3O8S/c1-13(2)10-17(26-22(30)34-9-7-14-4-3-5-16(23)11-14)20(28)25-18(21(29)35(31,32)33)12-15-6-8-24-19(15)27/h3-5,11,13,15,17-18,21,29H,6-10,12H2,1-2H3,(H,24,27)(H,25,28)(H,26,30)(H,31,32,33)/t15-,17-,18-,21+/m0/s1

> <OPENEYE_INCHIKEY>
OKWOXOSOFIECOU-QUJKESNLSA-N

> <FORMULA>
C22H32ClN3O8S

$$$$
