YLD
  -OEChem-02242320043D

 64 65  0     1  0  0  0  0  0999 V2000
    3.5780    0.4210   -0.3590 C   0  0  1  0  0  0  0  0  0  0  0  0
    3.6910   -0.7770   -1.3050 C   0  0  0  0  0  0  0  0  0  0  0  0
    3.9970   -2.0390   -0.4960 C   0  0  1  0  0  0  0  0  0  0  0  0
    4.1090   -3.2390   -1.4100 C   0  0  0  0  0  0  0  0  0  0  0  0
   -2.3830    0.2900    0.7700 C   0  0  0  0  0  0  0  0  0  0  0  0
    0.0260    0.0070    1.0030 C   0  0  1  0  0  0  0  0  0  0  0  0
    0.1870   -1.2280    1.8910 C   0  0  0  0  0  0  0  0  0  0  0  0
   -0.9360   -1.2600    2.9290 C   0  0  0  0  0  0  0  0  0  0  0  0
   -0.8490   -2.5570    3.7350 C   0  0  0  0  0  0  0  0  0  0  0  0
   -0.7950   -0.0630    3.8710 C   0  0  0  0  0  0  0  0  0  0  0  0
    1.1990    0.1060    0.0620 C   0  0  0  0  0  0  0  0  0  0  0  0
    5.8990   -3.3880    0.0620 C   0  0  0  0  0  0  0  0  0  0  0  0
    5.3920   -1.9330    0.1630 C   0  0  0  0  0  0  0  0  0  0  0  0
    3.3530    1.6960   -1.1750 C   0  0  2  0  0  0  0  0  0  0  0  0
   -4.7440    0.6300    0.7040 C   0  0  0  0  0  0  0  0  0  0  0  0
   -5.9060    0.4400   -0.2370 C   0  0  0  0  0  0  0  0  0  0  0  0
   -6.6100   -0.7490   -0.2330 C   0  0  0  0  0  0  0  0  0  0  0  0
   -7.6770   -0.9240   -1.0970 C   0  0  0  0  0  0  0  0  0  0  0  0
   -8.0390    0.0930   -1.9640 C   0  0  0  0  0  0  0  0  0  0  0  0
   -7.3330    1.2810   -1.9660 C   0  0  0  0  0  0  0  0  0  0  0  0
   -6.2710    1.4570   -1.0990 C   0  0  0  0  0  0  0  0  0  0  0  0
   -8.3660   -2.0870   -1.0950 F   0  0  0  0  0  0  0  0  0  0  0  0
   -1.2130   -0.1050    0.2290 N   0  0  0  0  0  0  0  0  0  0  0  0
    2.4490    0.2190    0.5520 N   0  0  0  0  0  0  0  0  0  0  0  0
    5.1850   -3.9740   -1.0790 N   0  0  0  0  0  0  0  0  0  0  0  0
   -2.4100    0.7390    1.8980 O   0  0  0  0  0  0  0  0  0  0  0  0
    3.3400   -3.5010   -2.3100 O   0  0  0  0  0  0  0  0  0  0  0  0
    4.4400    1.8770   -2.0850 O   0  0  0  0  0  0  0  0  0  0  0  0
    1.0180    0.0840   -1.1370 O   0  0  0  0  0  0  0  0  0  0  0  0
   -3.5220    0.1860    0.0590 O   0  0  0  0  0  0  0  0  0  0  0  0
    4.4980    0.5160    0.2180 H   0  0  0  0  0  0  0  0  0  0  0  0
    2.7500   -0.9070   -1.8390 H   0  0  0  0  0  0  0  0  0  0  0  0
    4.4930   -0.6000   -2.0210 H   0  0  0  0  0  0  0  0  0  0  0  0
    3.2290   -2.2020    0.2590 H   0  0  0  0  0  0  0  0  0  0  0  0
   -0.0150    0.9000    1.6270 H   0  0  0  0  0  0  0  0  0  0  0  0
    0.1390   -2.1260    1.2760 H   0  0  0  0  0  0  0  0  0  0  0  0
    1.1510   -1.1870    2.3990 H   0  0  0  0  0  0  0  0  0  0  0  0
   -1.9000   -1.2120    2.4220 H   0  0  0  0  0  0  0  0  0  0  0  0
    0.1150   -2.6060    4.2420 H   0  0  0  0  0  0  0  0  0  0  0  0
   -1.6490   -2.5800    4.4750 H   0  0  0  0  0  0  0  0  0  0  0  0
   -0.9500   -3.4100    3.0640 H   0  0  0  0  0  0  0  0  0  0  0  0
    0.1690   -0.1120    4.3780 H   0  0  0  0  0  0  0  0  0  0  0  0
   -0.8570    0.8610    3.2970 H   0  0  0  0  0  0  0  0  0  0  0  0
   -1.5950   -0.0860    4.6110 H   0  0  0  0  0  0  0  0  0  0  0  0
    6.9740   -3.4010   -0.1190 H   0  0  0  0  0  0  0  0  0  0  0  0
    5.6650   -3.9340    0.9760 H   0  0  0  0  0  0  0  0  0  0  0  0
    6.0370   -1.2550   -0.3950 H   0  0  0  0  0  0  0  0  0  0  0  0
    5.3080   -1.6210    1.2040 H   0  0  0  0  0  0  0  0  0  0  0  0
    3.2570    3.1200   -0.0560 S   0  0  0  0  0  0  0  0  0  0  0  0
    2.4220    1.6100   -1.7340 H   0  0  0  0  0  0  0  0  0  0  0  0
   -4.6550    1.6860    0.9620 H   0  0  0  0  0  0  0  0  0  0  0  0
   -4.9100    0.0470    1.6090 H   0  0  0  0  0  0  0  0  0  0  0  0
   -6.3270   -1.5420    0.4440 H   0  0  0  0  0  0  0  0  0  0  0  0
   -8.8710   -0.0430   -2.6390 H   0  0  0  0  0  0  0  0  0  0  0  0
   -7.6180    2.0770   -2.6390 H   0  0  0  0  0  0  0  0  0  0  0  0
   -5.7210    2.3860   -1.1010 H   0  0  0  0  0  0  0  0  0  0  0  0
   -1.1910   -0.4640   -0.6710 H   0  0  0  0  0  0  0  0  0  0  0  0
    2.6020    0.1660    1.5090 H   0  0  0  0  0  0  0  0  0  0  0  0
    5.4550   -4.7860   -1.5350 H   0  0  0  0  0  0  0  0  0  0  0  0
    4.5510    1.1510   -2.7140 H   0  0  0  0  0  0  0  0  0  0  0  0
    4.3730    3.1390    0.8240 O   0  0  0  0  0  0  0  0  0  0  0  0
    2.8640    4.2860   -0.7660 O   0  0  0  0  0  0  0  0  0  0  0  0
    2.0720    2.8140    0.8480 O   0  0  0  0  0  0  0  0  0  0  0  0
    1.8950    3.4970    1.5100 H   0  0  0  0  0  0  0  0  0  0  0  0
  4 27  2  0  0  0  0
 20 21  2  0  0  0  0
 19 20  1  0  0  0  0
 16 21  1  0  0  0  0
 18 19  2  0  0  0  0
 15 16  1  0  0  0  0
 16 17  2  0  0  0  0
 15 30  1  0  0  0  0
  4 25  1  0  0  0  0
  3  4  1  0  0  0  0
 12 25  1  0  0  0  0
 17 18  1  0  0  0  0
 18 22  1  0  0  0  0
  5 26  2  0  0  0  0
  5 30  1  0  0  0  0
  3 13  1  0  0  0  0
  2  3  1  0  0  0  0
  5 23  1  0  0  0  0
 12 13  1  0  0  0  0
  8 10  1  0  0  0  0
  6 23  1  0  0  0  0
  1  2  1  0  0  0  0
  6 11  1  0  0  0  0
  6  7  1  0  0  0  0
 11 24  1  0  0  0  0
  1 24  1  0  0  0  0
 11 29  2  0  0  0  0
  7  8  1  0  0  0  0
  8  9  1  0  0  0  0
  1 14  1  0  0  0  0
 14 28  1  0  0  0  0
  1 31  1  0  0  0  0
  2 32  1  0  0  0  0
  2 33  1  0  0  0  0
  3 34  1  0  0  0  0
  6 35  1  0  0  0  0
  7 36  1  0  0  0  0
  7 37  1  0  0  0  0
  8 38  1  0  0  0  0
  9 39  1  0  0  0  0
  9 40  1  0  0  0  0
  9 41  1  0  0  0  0
 10 42  1  0  0  0  0
 10 43  1  0  0  0  0
 10 44  1  0  0  0  0
 12 45  1  0  0  0  0
 12 46  1  0  0  0  0
 13 47  1  0  0  0  0
 13 48  1  0  0  0  0
 14 49  1  0  0  0  0
 14 50  1  0  0  0  0
 15 51  1  0  0  0  0
 15 52  1  0  0  0  0
 17 53  1  0  0  0  0
 19 54  1  0  0  0  0
 20 55  1  0  0  0  0
 21 56  1  0  0  0  0
 23 57  1  0  0  0  0
 24 58  1  0  0  0  0
 25 59  1  0  0  0  0
 28 60  1  0  0  0  0
 49 61  2  0  0  0  0
 49 62  2  0  0  0  0
 49 63  1  0  0  0  0
 63 64  1  0  0  0  0
M  END
> <OPENEYE_ISO_SMILES>
CC(C)C[C@@H](C(=O)N[C@@H](C[C@@H]1CCNC1=O)[C@H](O)S(=O)(=O)O)NC(=O)OCc2cccc(c2)F

> <OPENEYE_INCHI>
InChI=1S/C21H30FN3O8S/c1-12(2)8-16(25-21(29)33-11-13-4-3-5-15(22)9-13)19(27)24-17(20(28)34(30,31)32)10-14-6-7-23-18(14)26/h3-5,9,12,14,16-17,20,28H,6-8,10-11H2,1-2H3,(H,23,26)(H,24,27)(H,25,29)(H,30,31,32)/t14-,16-,17-,20+/m0/s1

> <OPENEYE_INCHIKEY>
LNGFVEUFXDACOC-JWWIWJDOSA-N

> <FORMULA>
C21H30FN3O8S

$$$$
