YLJ
  -OEChem-02242320043D

 64 65  0     1  0  0  0  0  0999 V2000
    3.2500   -0.0230   -1.4570 C   0  0  1  0  0  0  0  0  0  0  0  0
    5.4460    3.1580    0.8650 C   0  0  0  0  0  0  0  0  0  0  0  0
    5.5210    3.0160   -0.6710 C   0  0  0  0  0  0  0  0  0  0  0  0
    2.1130    2.3640    0.1950 O   0  0  0  0  0  0  0  0  0  0  0  0
   -4.8510    0.9330    0.5810 C   0  0  0  0  0  0  0  0  0  0  0  0
   -6.1330    0.6680   -0.1650 C   0  0  0  0  0  0  0  0  0  0  0  0
   -7.7480    1.3200   -1.8090 C   0  0  0  0  0  0  0  0  0  0  0  0
   -8.4880    0.1850   -1.5350 C   0  0  0  0  0  0  0  0  0  0  0  0
   -8.0530   -0.7070   -0.5690 C   0  0  0  0  0  0  0  0  0  0  0  0
   -6.8740   -0.4640    0.1160 C   0  0  0  0  0  0  0  0  0  0  0  0
   -2.5160    0.4700    0.4040 C   0  0  0  0  0  0  0  0  0  0  0  0
   -0.1090    0.0890    0.3760 C   0  0  1  0  0  0  0  0  0  0  0  0
    0.1220   -1.0040    1.4210 C   0  0  0  0  0  0  0  0  0  0  0  0
   -0.8550   -0.8130    2.5830 C   0  0  0  0  0  0  0  0  0  0  0  0
   -0.7090   -1.9750    3.5680 C   0  0  0  0  0  0  0  0  0  0  0  0
   -0.5450    0.5030    3.2990 C   0  0  0  0  0  0  0  0  0  0  0  0
    0.9310   -0.0250   -0.7090 C   0  0  0  0  0  0  0  0  0  0  0  0
    4.5150    0.7250   -1.0300 C   0  0  0  0  0  0  0  0  0  0  0  0
    4.2270    2.2270   -0.9780 C   0  0  1  0  0  0  0  0  0  0  0  0
    3.3110    2.5500    0.1830 C   0  0  0  0  0  0  0  0  0  0  0  0
    3.5830   -1.4970   -1.6910 C   0  0  1  0  0  0  0  0  0  0  0  0
   -6.5710    1.5610   -1.1250 C   0  0  0  0  0  0  0  0  0  0  0  0
   -8.7750   -1.8160   -0.3000 F   0  0  0  0  0  0  0  0  0  0  0  0
   -1.4440   -0.0690   -0.2090 N   0  0  0  0  0  0  0  0  0  0  0  0
    2.2390    0.0880   -0.4030 N   0  0  0  0  0  0  0  0  0  0  0  0
    4.0190    3.0740    1.1980 N   0  0  0  0  0  0  0  0  0  0  0  0
   -2.3760    1.0870    1.4410 O   0  0  0  0  0  0  0  0  0  0  0  0
    4.5690   -1.6050   -2.7200 O   0  0  0  0  0  0  0  0  0  0  0  0
    0.5910   -0.2190   -1.8570 O   0  0  0  0  0  0  0  0  0  0  0  0
   -3.7420    0.3250   -0.1340 O   0  0  0  0  0  0  0  0  0  0  0  0
    2.8640    0.4130   -2.3780 H   0  0  0  0  0  0  0  0  0  0  0  0
    5.9940    2.3470    1.3460 H   0  0  0  0  0  0  0  0  0  0  0  0
    5.5050    3.9930   -1.1540 H   0  0  0  0  0  0  0  0  0  0  0  0
    6.4030    2.4490   -0.9680 H   0  0  0  0  0  0  0  0  0  0  0  0
   -4.6890    2.0080    0.6560 H   0  0  0  0  0  0  0  0  0  0  0  0
   -4.9170    0.5040    1.5810 H   0  0  0  0  0  0  0  0  0  0  0  0
   -8.0890    2.0190   -2.5590 H   0  0  0  0  0  0  0  0  0  0  0  0
   -9.4070   -0.0030   -2.0690 H   0  0  0  0  0  0  0  0  0  0  0  0
   -6.5340   -1.1600    0.8690 H   0  0  0  0  0  0  0  0  0  0  0  0
   -0.0340    1.0670    0.8500 H   0  0  0  0  0  0  0  0  0  0  0  0
   -0.0410   -1.9820    0.9670 H   0  0  0  0  0  0  0  0  0  0  0  0
    1.1450   -0.9420    1.7920 H   0  0  0  0  0  0  0  0  0  0  0  0
   -1.8750   -0.7870    2.2000 H   0  0  0  0  0  0  0  0  0  0  0  0
    0.3110   -2.0010    3.9510 H   0  0  0  0  0  0  0  0  0  0  0  0
   -1.4050   -1.8390    4.3960 H   0  0  0  0  0  0  0  0  0  0  0  0
   -0.9300   -2.9130    3.0580 H   0  0  0  0  0  0  0  0  0  0  0  0
    0.4750    0.4770    3.6820 H   0  0  0  0  0  0  0  0  0  0  0  0
   -0.6480    1.3310    2.5970 H   0  0  0  0  0  0  0  0  0  0  0  0
   -1.2400    0.6400    4.1270 H   0  0  0  0  0  0  0  0  0  0  0  0
    4.8260    0.3800   -0.0440 H   0  0  0  0  0  0  0  0  0  0  0  0
    5.3110    0.5330   -1.7500 H   0  0  0  0  0  0  0  0  0  0  0  0
    3.7880    2.5630   -1.9170 H   0  0  0  0  0  0  0  0  0  0  0  0
    2.6820   -2.0300   -1.9930 H   0  0  0  0  0  0  0  0  0  0  0  0
    4.2280   -2.2220   -0.1580 S   0  0  0  0  0  0  0  0  0  0  0  0
   -5.9940    2.4480   -1.3410 H   0  0  0  0  0  0  0  0  0  0  0  0
   -1.5550   -0.5620   -1.0370 H   0  0  0  0  0  0  0  0  0  0  0  0
    2.5100    0.2430    0.5160 H   0  0  0  0  0  0  0  0  0  0  0  0
    4.2920   -1.2370   -3.5700 H   0  0  0  0  0  0  0  0  0  0  0  0
    4.2350   -3.6400   -0.2410 O   0  0  0  0  0  0  0  0  0  0  0  0
    5.3740   -1.5090    0.2880 O   0  0  0  0  0  0  0  0  0  0  0  0
    3.1640   -1.9120    0.8860 O   0  0  0  0  0  0  0  0  0  0  0  0
    5.8510    4.1210    1.1750 H   0  0  0  0  0  0  0  0  0  0  0  0
    3.6360    3.3610    2.0420 H   0  0  0  0  0  0  0  0  0  0  0  0
    3.3720   -2.2430    1.7700 H   0  0  0  0  0  0  0  0  0  0  0  0
  4 20  2  0  0  0  0
  7 22  2  0  0  0  0
  7  8  1  0  0  0  0
  6 22  1  0  0  0  0
  8  9  2  0  0  0  0
  5  6  1  0  0  0  0
  6 10  2  0  0  0  0
  5 30  1  0  0  0  0
 20 26  1  0  0  0  0
 19 20  1  0  0  0  0
  2 26  1  0  0  0  0
  9 10  1  0  0  0  0
  9 23  1  0  0  0  0
 11 27  2  0  0  0  0
 11 30  1  0  0  0  0
 18 19  1  0  0  0  0
  3 19  1  0  0  0  0
 11 24  1  0  0  0  0
  2  3  1  0  0  0  0
 14 16  1  0  0  0  0
 12 24  1  0  0  0  0
  1 18  1  0  0  0  0
 12 17  1  0  0  0  0
 12 13  1  0  0  0  0
 17 25  1  0  0  0  0
  1 25  1  0  0  0  0
 17 29  2  0  0  0  0
 13 14  1  0  0  0  0
 14 15  1  0  0  0  0
  1 21  1  0  0  0  0
 21 28  1  0  0  0  0
  1 31  1  0  0  0  0
  2 32  1  0  0  0  0
  3 33  1  0  0  0  0
  3 34  1  0  0  0  0
  5 35  1  0  0  0  0
  5 36  1  0  0  0  0
  7 37  1  0  0  0  0
  8 38  1  0  0  0  0
 10 39  1  0  0  0  0
 12 40  1  0  0  0  0
 13 41  1  0  0  0  0
 13 42  1  0  0  0  0
 14 43  1  0  0  0  0
 15 44  1  0  0  0  0
 15 45  1  0  0  0  0
 15 46  1  0  0  0  0
 16 47  1  0  0  0  0
 16 48  1  0  0  0  0
 16 49  1  0  0  0  0
 18 50  1  0  0  0  0
 18 51  1  0  0  0  0
 19 52  1  0  0  0  0
 21 53  1  0  0  0  0
 21 54  1  0  0  0  0
 22 55  1  0  0  0  0
 24 56  1  0  0  0  0
 25 57  1  0  0  0  0
 28 58  1  0  0  0  0
 54 59  2  0  0  0  0
 54 60  2  0  0  0  0
 54 61  1  0  0  0  0
  2 62  1  0  0  0  0
 26 63  1  0  0  0  0
 61 64  1  0  0  0  0
M  END
> <OPENEYE_ISO_SMILES>
CC(C)C[C@@H](C(=O)N[C@@H](C[C@@H]1CCNC1=O)[C@@H](O)S(=O)(=O)O)NC(=O)OCc2cccc(c2)F

> <OPENEYE_INCHI>
InChI=1S/C21H30FN3O8S/c1-12(2)8-16(25-21(29)33-11-13-4-3-5-15(22)9-13)19(27)24-17(20(28)34(30,31)32)10-14-6-7-23-18(14)26/h3-5,9,12,14,16-17,20,28H,6-8,10-11H2,1-2H3,(H,23,26)(H,24,27)(H,25,29)(H,30,31,32)/t14-,16-,17-,20-/m0/s1

> <OPENEYE_INCHIKEY>
LNGFVEUFXDACOC-VERUCKTNSA-N

> <FORMULA>
C21H30FN3O8S

$$$$
