@<TRIPOS>MOLECULE
/home/pku/3cl/gett_pdb/7LZV/7LZV_mol2/ligand/7LZV_YLM.pdb
 30 31 0 0 0
SMALL
GASTEIGER

@<TRIPOS>ATOM
      1  C11        8.7170   19.8030   27.7340 C.3   401  YLM401      0.1287
      2  C12        7.7290   19.7690   26.5400 C.3   401  YLM401      0.0335
      3  C13        7.3590   21.1270   25.9590 C.3   401  YLM401      0.0818
      4  C14        6.4130   20.9780   24.7880 C.2   401  YLM401      0.2410
      5  C16        5.3620   22.5370   26.2100 C.3   401  YLM401      0.1156
      6  C17        6.5240   21.9050   26.9860 C.3   401  YLM401      0.0326
      7  C27       11.9430   30.2020   24.9220 C.ar  401  YLM401      0.1401
      8  C02       10.6390   24.0730   25.9290 C.2   401  YLM401      0.4218
      9  C04       11.8220   22.1530   27.0230 C.3   401  YLM401      0.1761
     10  C05       12.9200   21.8770   28.0410 C.3   401  YLM401      0.0312
     11  C06       14.3380   22.2870   27.6700 C.3   401  YLM401      0.0022
     12  C07       15.3440   22.0790   28.8440 C.3   401  YLM401      0.0001
     13  C08       14.7950   21.5000   26.4510 C.3   401  YLM401      0.0001
     14  C09       10.4450   21.6840   27.5390 C.2   401  YLM401      0.2614
     15  C19        8.9260   18.4000   28.3020 C.3   401  YLM401      0.2036
     16  C23       11.6440   25.8930   24.7070 C.3   401  YLM401      0.2368
     17  C24       11.7360   27.4090   24.7580 C.ar  401  YLM401      0.0215
     18  C25       10.9210   28.2490   24.0000 C.ar  401  YLM401      0.0016
     19  C26       11.0060   29.6430   24.0600 C.ar  401  YLM401      0.0294
     20  C29       12.7700   29.4200   25.6980 C.ar  401  YLM401      0.0294
     21  C30       12.6460   28.0310   25.6030 C.ar  401  YLM401      0.0016
     22  F28       12.0540   31.5440   25.0060 F     401  YLM401     -0.2042
     23  N03       11.7460   23.5600   26.6010 N.am  401  YLM401     -0.1611
     24  N10        9.9930   20.4030   27.2960 N.am  401  YLM401     -0.2030
     25  N15        5.3050   21.7890   24.9380 N.am  401  YLM401     -0.2054
     26  O01        9.6830   23.4050   25.5780 O.2   401  YLM401     -0.2245
     27  O18        6.5660   20.2750   23.7790 O.2   401  YLM401     -0.2734
     28  O20        9.7400   18.5430   29.4850 O.3   401  YLM401     -0.2185
     29  O21        9.7650   22.5020   28.1840 O.2   401  YLM401     -0.2715
     30  O22       10.6840   25.4410   25.6660 O.3   401  YLM401     -0.4285
@<TRIPOS>BOND
     1    27     4    2
     2    18    19   ar
     3    18    17   ar
     4    19     7   ar
     5    16    17    1
     6    16    30    1
     7    17    21   ar
     8     4    25   am
     9     4     3    1
    10     7    22    1
    11     7    20   ar
    12    25     5    1
    13    26     8    2
    14    21    20   ar
    15    30     8    1
    16     8    23   am
    17     3     2    1
    18     3     6    1
    19     5     6    1
    20    13    11    1
    21     2     1    1
    22    23     9    1
    23     9    14    1
    24     9    10    1
    25    24    14   am
    26    24     1    1
    27    14    29    2
    28    11    10    1
    29    11    12    1
    30     1    15    1
    31    15    28    1
