@<TRIPOS>MOLECULE
/home/pku/3cl/gett_pdb/5SQK/5SQK_mol2/ligand/5SQK_QS6.pdb
 30 32 0 0 0
SMALL
GASTEIGER

@<TRIPOS>ATOM
      1  C16      -45.3380  -30.6560    0.5770 C.3   201  QS6201     -0.0084
      2  C14      -44.0760  -29.4320    6.1760 C.ar  201  QS6201      0.1204
      3  C12      -46.3790  -29.1120    6.1950 C.ar  201  QS6201      0.1431
      4  C10      -48.5030  -28.8580    5.6320 C.ar  201  QS6201      0.0042
      5  C02      -46.5580  -30.0850   -0.4600 C.3   201  QS6201      0.0570
      6  C03      -47.6510  -30.5270    0.0840 C.3   201  QS6201     -0.0251
      7  C04      -47.4000  -30.5370    1.6590 C.3   201  QS6201     -0.0321
      8  C05      -45.8160  -30.6890    1.8180 C.3   201  QS6201      0.0244
      9  C07      -45.2580  -29.4200    4.1320 C.ar  201  QS6201      0.1314
     10  C08      -46.4320  -29.2040    4.8070 C.ar  201  QS6201      0.0583
     11  C09      -47.7950  -29.0350    4.4750 C.ar  201  QS6201     -0.0318
     12  N06      -45.2010  -29.5180    2.6270 N.pl3 201  QS6201     -0.3255
     13  N11      -47.6280  -28.9090    6.6730 N.ar  201  QS6201     -0.3457
     14  N13      -45.1670  -29.2390    6.8270 N.ar  201  QS6201     -0.2178
     15  N15      -44.0720  -29.5240    4.8630 N.ar  201  QS6201     -0.2202
     16  O01      -46.6060  -28.6710   -0.5470 O.3   201  QS6201     -0.3917
     17 H162      -45.0370  -31.6810    0.2730 H     201  QS6201      0.0308
     18 H161      -44.4980  -29.9880    0.5200 H     201  QS6201      0.0308
     19 H141      -43.1170  -29.5240    6.7600 H     201  QS6201      0.1048
     20 H101      -49.5630  -28.7150    5.6920 H     201  QS6201      0.0807
     21 H021      -46.4820  -30.5810   -1.4930 H     201  QS6201      0.0594
     22 H032      -47.7410  -31.4940   -0.2620 H     201  QS6201      0.0291
     23 H031      -48.5470  -29.9060   -0.1620 H     201  QS6201      0.0291
     24 H042      -47.9490  -31.3420    2.2020 H     201  QS6201      0.0284
     25 H041      -47.6960  -29.5960    1.9850 H     201  QS6201      0.0284
     26 H051      -45.5740  -31.6500    2.2870 H     201  QS6201      0.0499
     27 H091      -48.2360  -29.0480    3.4700 H     201  QS6201      0.0640
     28 H061      -44.7030  -28.7600    2.1090 H     201  QS6201      0.1478
     29 H111      -47.8780  -28.8080    7.6630 H     201  QS6201      0.1668
     30 H011      -47.4540  -28.4040   -0.9790 H     201  QS6201      0.2098
@<TRIPOS>BOND
     1    21     5    1
     2    30    16    1
     3    16     5    1
     4     5     6    1
     5     5     1    1
     6    22     6    1
     7    23     6    1
     8     6     7    1
     9    17     1    1
    10    18     1    1
    11     1     8    1
    12     7     8    1
    13     7    25    1
    14     7    24    1
    15     8    26    1
    16     8    12    1
    17    28    12    1
    18    12     9    1
    19    27    11    1
    20     9    10   ar
    21     9    15   ar
    22    11    10   ar
    23    11     4   ar
    24    10     3   ar
    25    15     2   ar
    26     4    20    1
    27     4    13   ar
    28     2    19    1
    29     2    14   ar
    30     3    13   ar
    31     3    14   ar
    32    13    29    1
