@<TRIPOS>MOLECULE
/home/pku/3cl/gett_pdb/7VLQ/7VLQ_mol2/ligand/7VLQ_4WI.pdb
 35 37 0 0 0
SMALL
GASTEIGER

@<TRIPOS>ATOM
      1  C8       -16.8010   -3.8220  -26.2050 C.2   401  4WI401      0.2410
      2  C3       -20.8460   -1.2520  -24.9870 C.3   401  4WI401      0.1309
      3  C1       -21.3630   -2.8330  -28.0920 C.2   401  4WI401      0.2594
      4  C13      -20.1030   -4.0990  -30.5080 C.2   401  4WI401      0.2458
      5  C21      -19.3820   -4.6190  -33.7570 C.2   401  4WI401      0.3371
      6  C6       -18.7830   -4.9510  -25.8550 C.3   401  4WI401      0.0326
      7  C7       -17.6760   -5.9520  -26.1620 C.3   401  4WI401      0.1156
      8  C10      -22.5930   -4.0430  -30.8860 C.3   401  4WI401      0.0939
      9  C5       -18.1940   -3.6920  -26.4660 C.3   401  4WI401      0.0817
     10  C9       -21.5340   -2.4140  -29.4200 C.3   401  4WI401      0.1535
     11  C11      -23.6200   -2.9440  -30.6250 C.3   401  4WI401      0.0220
     12  C12      -22.9500   -1.8970  -29.7150 C.3   401  4WI401      0.0289
     13  C18      -23.3060   -1.5450  -31.1560 C.3   401  4WI401      0.0037
     14  C19      -24.5080   -0.6250  -31.3900 C.3   401  4WI401      0.0001
     15  C20      -22.1940   -1.3460  -32.2030 C.3   401  4WI401      0.0001
     16  C16      -19.5890   -7.6910  -31.9470 C.3   401  4WI401      0.0022
     17  C17      -20.7950   -7.0010  -29.8500 C.3   401  4WI401      0.0022
     18  C23      -18.3350   -6.5640  -30.1050 C.3   401  4WI401      0.0022
     19  C4       -18.7770   -2.4540  -25.7380 C.3   401  4WI401      0.0324
     20  C2       -20.3120   -2.3530  -25.9040 C.3   401  4WI401      0.1148
     21  C14      -20.0320   -5.2810  -31.5010 C.3   401  4WI401      0.1714
     22  C22      -18.2490   -4.1640  -34.6550 C.3   401  4WI401      0.4711
     23  C15      -19.6810   -6.6230  -30.8420 C.3   401  4WI401      0.0269
     24  N5       -21.1690   -1.6270  -23.7430 N.3   401  4WI401     -0.1295
     25  N2       -16.4490   -5.1010  -26.0060 N.am  401  4WI401     -0.2054
     26  N3       -21.3230   -3.5790  -30.3140 N.am  401  4WI401     -0.2716
     27  N1       -20.6350   -2.0100  -27.3090 N.am  401  4WI401     -0.2043
     28  N4       -19.0330   -4.9030  -32.5020 N.am  401  4WI401     -0.1908
     29  O1       -15.9960   -2.8780  -26.1660 O.2   401  4WI401     -0.2734
     30  O2       -21.7610   -3.9310  -27.7170 O.2   401  4WI401     -0.2716
     31  O3       -19.0930   -3.6240  -29.9900 O.2   401  4WI401     -0.2730
     32  O4       -20.5260   -4.6950  -34.1920 O.2   401  4WI401     -0.2642
     33  F1       -18.7960   -3.7000  -35.7940 F     401  4WI401     -0.1620
     34  F2       -17.5900   -3.1690  -34.0650 F     401  4WI401     -0.1620
     35  F3       -17.3980   -5.1810  -34.8720 F     401  4WI401     -0.1620
@<TRIPOS>BOND
     1    33    22    1
     2    35    22    1
     3    22    34    1
     4    22     5    1
     5    32     5    2
     6     5    28   am
     7    28    21    1
     8    15    13    1
     9    16    23    1
    10    21    23    1
    11    21     4    1
    12    14    13    1
    13    13    11    1
    14    13    12    1
    15     8    11    1
    16     8    26    1
    17    23    18    1
    18    23    17    1
    19    11    12    1
    20     4    26   am
    21     4    31    2
    22    26    10    1
    23    12    10    1
    24    10     3    1
    25     3    30    2
    26     3    27   am
    27    27    20    1
    28     9     1    1
    29     9     6    1
    30     9    19    1
    31     1    29    2
    32     1    25   am
    33     7    25    1
    34     7     6    1
    35    20    19    1
    36    20     2    1
    37     2    24    1
