H37
  -OEChem-02242320023D

 68 69  0     1  0  0  0  0  0999 V2000
    4.3430    1.9700    1.5590 N   0  0  0  0  0  0  0  0  0  0  0  0
    3.7040    0.7070    1.1630 C   0  0  1  0  0  0  0  0  0  0  0  0
    2.3970    0.9990    0.4720 C   0  0  0  0  0  0  0  0  0  0  0  0
    2.1930    2.0980    0.0000 O   0  0  0  0  0  0  0  0  0  0  0  0
    4.6270   -0.0530    0.2080 C   0  0  0  0  0  0  0  0  0  0  0  0
    5.8850   -0.4530    0.9360 C   0  0  0  0  0  0  0  0  0  0  0  0
    5.9460   -1.6680    1.5930 C   0  0  0  0  0  0  0  0  0  0  0  0
    6.9780    0.3930    0.9420 C   0  0  0  0  0  0  0  0  0  0  0  0
    7.1000   -2.0340    2.2610 C   0  0  0  0  0  0  0  0  0  0  0  0
    8.1320    0.0260    1.6100 C   0  0  0  0  0  0  0  0  0  0  0  0
    8.1910   -1.1860    2.2720 C   0  0  0  0  0  0  0  0  0  0  0  0
    1.4550    0.0400    0.3790 N   0  0  0  0  0  0  0  0  0  0  0  0
    0.1840    0.3250   -0.2920 C   0  0  2  0  0  0  0  0  0  0  0  0
   -0.8820   -0.6000    0.2370 C   0  0  0  0  0  0  0  0  0  0  0  0
   -0.6070   -1.4160    1.0920 O   0  0  0  0  0  0  0  0  0  0  0  0
    0.3440    0.1090   -1.7990 C   0  0  0  0  0  0  0  0  0  0  0  0
    1.3200    1.1160   -2.3500 C   0  0  0  0  0  0  0  0  0  0  0  0
    0.8680    2.3420   -2.8020 C   0  0  0  0  0  0  0  0  0  0  0  0
    2.6690    0.8170   -2.3980 C   0  0  0  0  0  0  0  0  0  0  0  0
    1.7640    3.2670   -3.3030 C   0  0  0  0  0  0  0  0  0  0  0  0
    3.5640    1.7410   -2.9030 C   0  0  0  0  0  0  0  0  0  0  0  0
    3.1120    2.9680   -3.3510 C   0  0  0  0  0  0  0  0  0  0  0  0
   -2.1400   -0.5200   -0.2380 N   0  0  0  0  0  0  0  0  0  0  0  0
   -3.1760   -1.4180    0.2770 C   0  0  2  0  0  0  0  0  0  0  0  0
   -3.1290   -2.7230   -0.4760 C   0  0  0  0  0  0  0  0  0  0  0  0
   -2.5160   -2.7990   -1.5140 O   0  0  0  0  0  0  0  0  0  0  0  0
   -4.5500   -0.7710    0.0910 C   0  0  0  0  0  0  0  0  0  0  0  0
   -4.6420    0.4890    0.9540 C   0  0  0  0  0  0  0  0  0  0  0  0
   -6.0160    1.1350    0.7680 C   0  0  0  0  0  0  0  0  0  0  0  0
   -6.1040    2.3420    1.5940 N   0  0  0  0  0  0  0  0  0  0  0  0
   -7.2540    3.0950    1.5910 C   0  0  0  0  0  0  0  0  0  0  0  0
   -8.3220    2.7160    0.8120 N   0  0  0  0  0  0  0  0  0  0  0  0
   -7.3320    4.1680    2.3260 N   0  0  0  0  0  0  0  0  0  0  0  0
   -3.8460   -3.9320    0.0670 C   0  0  0  0  0  0  0  0  0  0  0  0
   -3.6040   -5.3260   -1.0510 Cl  0  0  0  0  0  0  0  0  0  0  0  0
    4.5250    2.5500    0.7540 H   0  0  0  0  0  0  0  0  0  0  0  0
    3.7820    2.4600    2.2390 H   0  0  0  0  0  0  0  0  0  0  0  0
    3.5190    0.1000    2.0490 H   0  0  0  0  0  0  0  0  0  0  0  0
    4.1180   -0.9460   -0.1550 H   0  0  0  0  0  0  0  0  0  0  0  0
    4.8840    0.5870   -0.6360 H   0  0  0  0  0  0  0  0  0  0  0  0
    5.0930   -2.3300    1.5850 H   0  0  0  0  0  0  0  0  0  0  0  0
    6.9320    1.3390    0.4240 H   0  0  0  0  0  0  0  0  0  0  0  0
    7.1480   -2.9830    2.7750 H   0  0  0  0  0  0  0  0  0  0  0  0
    8.9860    0.6860    1.6140 H   0  0  0  0  0  0  0  0  0  0  0  0
    9.0920   -1.4730    2.7930 H   0  0  0  0  0  0  0  0  0  0  0  0
    1.6180   -0.8380    0.7560 H   0  0  0  0  0  0  0  0  0  0  0  0
   -0.1040    1.3590   -0.1020 H   0  0  0  0  0  0  0  0  0  0  0  0
    0.7180   -0.8980   -1.9840 H   0  0  0  0  0  0  0  0  0  0  0  0
   -0.6220    0.2340   -2.2880 H   0  0  0  0  0  0  0  0  0  0  0  0
   -0.1860    2.5760   -2.7640 H   0  0  0  0  0  0  0  0  0  0  0  0
    3.0230   -0.1390   -2.0410 H   0  0  0  0  0  0  0  0  0  0  0  0
    1.4100    4.2250   -3.6560 H   0  0  0  0  0  0  0  0  0  0  0  0
    4.6180    1.5070   -2.9400 H   0  0  0  0  0  0  0  0  0  0  0  0
    3.8120    3.6910   -3.7420 H   0  0  0  0  0  0  0  0  0  0  0  0
   -2.3600    0.1330   -0.9220 H   0  0  0  0  0  0  0  0  0  0  0  0
   -3.0020   -1.6040    1.3370 H   0  0  0  0  0  0  0  0  0  0  0  0
   -4.6880   -0.5050   -0.9570 H   0  0  0  0  0  0  0  0  0  0  0  0
   -5.3270   -1.4750    0.3910 H   0  0  0  0  0  0  0  0  0  0  0  0
   -4.5050    0.2220    2.0010 H   0  0  0  0  0  0  0  0  0  0  0  0
   -3.8660    1.1920    0.6530 H   0  0  0  0  0  0  0  0  0  0  0  0
   -6.1540    1.4020   -0.2800 H   0  0  0  0  0  0  0  0  0  0  0  0
   -6.7930    0.4320    1.0680 H   0  0  0  0  0  0  0  0  0  0  0  0
   -5.3510    2.6090    2.1430 H   0  0  0  0  0  0  0  0  0  0  0  0
   -8.2640    1.9170    0.2650 H   0  0  0  0  0  0  0  0  0  0  0  0
   -9.1340    3.2470    0.8100 H   0  0  0  0  0  0  0  0  0  0  0  0
   -8.1440    4.7000    2.3230 H   0  0  0  0  0  0  0  0  0  0  0  0
   -3.4470   -4.1810    1.0500 H   0  0  0  0  0  0  0  0  0  0  0  0
   -4.9110   -3.7150    0.1510 H   0  0  0  0  0  0  0  0  0  0  0  0
  3  4  2  0  0  0  0
  1 36  1  0  0  0  0
  1 37  1  0  0  0  0
 14 15  2  0  0  0  0
 14 23  1  0  0  0  0
  3 12  1  0  0  0  0
 12 13  1  0  0  0  0
 12 46  1  0  0  0  0
 25 26  2  0  0  0  0
 24 25  1  0  0  0  0
 23 24  1  0  0  0  0
 23 55  1  0  0  0  0
 25 34  1  0  0  0  0
 34 67  1  0  0  0  0
 34 68  1  0  0  0  0
 34 35  1  0  0  0  0
  2  3  1  0  0  0  0
  1  2  1  0  0  0  0
  2 38  1  0  0  0  0
  2  5  1  0  0  0  0
  5  6  1  0  0  0  0
  5 39  1  0  0  0  0
  5 40  1  0  0  0  0
 29 30  1  0  0  0  0
 29 61  1  0  0  0  0
 29 62  1  0  0  0  0
 30 31  1  0  0  0  0
 30 63  1  0  0  0  0
  6  7  1  0  0  0  0
  9 11  1  0  0  0  0
 11 45  1  0  0  0  0
 17 18  1  0  0  0  0
 18 50  1  0  0  0  0
 18 20  2  0  0  0  0
 20 22  1  0  0  0  0
 20 52  1  0  0  0  0
 19 51  1  0  0  0  0
 19 21  1  0  0  0  0
 21 53  1  0  0  0  0
 13 14  1  0  0  0  0
 13 47  1  0  0  0  0
 24 27  1  0  0  0  0
 24 56  1  0  0  0  0
 13 16  1  0  0  0  0
 16 48  1  0  0  0  0
 16 49  1  0  0  0  0
 27 28  1  0  0  0  0
 27 57  1  0  0  0  0
 27 58  1  0  0  0  0
  7  9  2  0  0  0  0
  7 41  1  0  0  0  0
  6  8  2  0  0  0  0
  8 10  1  0  0  0  0
  8 42  1  0  0  0  0
  9 43  1  0  0  0  0
 10 11  2  0  0  0  0
 10 44  1  0  0  0  0
 17 19  2  0  0  0  0
 16 17  1  0  0  0  0
 28 29  1  0  0  0  0
 28 59  1  0  0  0  0
 28 60  1  0  0  0  0
 31 33  2  0  0  0  0
 33 66  1  0  0  0  0
 32 64  1  0  0  0  0
 32 65  1  0  0  0  0
 21 22  2  0  0  0  0
 22 54  1  0  0  0  0
 31 32  1  0  0  0  0
M  END
> <OPENEYE_ISO_SMILES>
[H]/N=C(\N)/NCCC[C@@H](C(=O)CCl)NC(=O)[C@H](Cc1ccccc1)NC(=O)[C@@H](Cc2ccccc2)N

> <OPENEYE_INCHI>
InChI=1S/C25H33ClN6O3/c26-16-22(33)20(12-7-13-30-25(28)29)31-24(35)21(15-18-10-5-2-6-11-18)32-23(34)19(27)14-17-8-3-1-4-9-17/h1-6,8-11,19-21H,7,12-16,27H2,(H,31,35)(H,32,34)(H4,28,29,30)/t19-,20+,21+/m1/s1

> <OPENEYE_INCHIKEY>
PJFSUJMJVYGASC-HKBOAZHASA-N

> <FORMULA>
C25H33ClN6O3

$$$$
