W3P
  -OEChem-02242320043D

 16 17  0     0  0  0  0  0  0999 V2000
   -1.1630   -1.3540    0.0000 N   0  0  0  0  0  0  0  0  0  0  0  0
   -2.3780    0.6730   -0.0000 C   0  0  0  0  0  0  0  0  0  0  0  0
   -1.2270    1.4100    0.0000 C   0  0  0  0  0  0  0  0  0  0  0  0
   -0.0000    0.7230    0.0000 C   0  0  0  0  0  0  0  0  0  0  0  0
    1.2270    1.4100    0.0000 C   0  0  0  0  0  0  0  0  0  0  0  0
    2.3780    0.6730   -0.0010 C   0  0  0  0  0  0  0  0  0  0  0  0
   -0.0000   -0.6940    0.0000 C   0  0  0  0  0  0  0  0  0  0  0  0
    1.1630   -1.3540    0.0000 N   0  0  0  0  0  0  0  0  0  0  0  0
    2.3100   -0.7180   -0.0000 C   0  0  0  0  0  0  0  0  0  0  0  0
   -2.3100   -0.7180   -0.0000 C   0  0  0  0  0  0  0  0  0  0  0  0
   -3.3380    1.1680   -0.0000 H   0  0  0  0  0  0  0  0  0  0  0  0
   -1.2590    2.4900   -0.0000 H   0  0  0  0  0  0  0  0  0  0  0  0
    1.2590    2.4900   -0.0000 H   0  0  0  0  0  0  0  0  0  0  0  0
    3.3380    1.1680   -0.0010 H   0  0  0  0  0  0  0  0  0  0  0  0
    3.2270   -1.2880   -0.0000 H   0  0  0  0  0  0  0  0  0  0  0  0
   -3.2270   -1.2880   -0.0010 H   0  0  0  0  0  0  0  0  0  0  0  0
  1 10  2  0  0  0  0
  1  7  1  0  0  0  0
  2 10  1  0  0  0  0
  7  8  2  0  0  0  0
  8  9  1  0  0  0  0
  4  7  1  0  0  0  0
  2  3  2  0  0  0  0
  6  9  2  0  0  0  0
  3  4  1  0  0  0  0
  4  5  2  0  0  0  0
  5  6  1  0  0  0  0
  2 11  1  0  0  0  0
  3 12  1  0  0  0  0
  5 13  1  0  0  0  0
  6 14  1  0  0  0  0
  9 15  1  0  0  0  0
 10 16  1  0  0  0  0
M  END
> <OPENEYE_ISO_SMILES>
c1cc2cccnc2nc1

> <OPENEYE_INCHI>
InChI=1S/C8H6N2/c1-3-7-4-2-6-10-8(7)9-5-1/h1-6H

> <OPENEYE_INCHIKEY>
FLBAYUMRQUHISI-UHFFFAOYSA-N

> <FORMULA>
C8H6N2

$$$$
