FEY
  -OEChem-02242320023D

 88 91  0     1  0  0  0  0  0999 V2000
    5.6500    2.6140   -0.8440 C   0  0  1  0  0  0  0  0  0  0  0  0
    4.5230    2.7380    0.1570 C   0  0  0  0  0  0  0  0  0  0  0  0
    6.1110    4.3110    0.7860 C   0  0  0  0  0  0  0  0  0  0  0  0
    6.4600    3.9190   -0.6670 C   0  0  0  0  0  0  0  0  0  0  0  0
    6.6240   -1.0990   -0.6070 C   0  0  2  0  0  0  0  0  0  0  0  0
   -1.0830   -1.5880    0.3470 O   0  0  0  0  0  0  0  0  0  0  0  0
   -6.8000    0.1920   -0.2400 N   0  0  0  0  0  0  0  0  0  0  0  0
   -8.1290    0.4130   -0.2180 C   0  0  0  0  0  0  0  0  0  0  0  0
   -9.0050   -0.1470   -1.3090 C   0  0  0  0  0  0  0  0  0  0  0  0
   -6.1920   -0.5880   -1.3260 C   0  0  0  0  0  0  0  0  0  0  0  0
   -5.3980   -1.7490   -0.7160 C   0  0  0  0  0  0  0  0  0  0  0  0
   -3.4430   -2.2460    0.8600 C   0  0  0  0  0  0  0  0  0  0  0  0
    0.0010   -0.9530    0.8310 C   0  0  0  0  0  0  0  0  0  0  0  0
    2.4170   -0.7080    1.0370 C   0  0  1  0  0  0  0  0  0  0  0  0
    2.8320   -1.5100    2.2720 C   0  0  0  0  0  0  0  0  0  0  0  0
    3.4810    0.5340    3.5540 C   0  0  0  0  0  0  0  0  0  0  0  0
    3.5460   -0.7010    0.0400 C   0  0  0  0  0  0  0  0  0  0  0  0
    5.7060    0.1180   -0.7360 C   0  0  2  0  0  0  0  0  0  0  0  0
    6.5200    1.3960   -0.5240 C   0  0  0  0  0  0  0  0  0  0  0  0
   -2.3790   -1.1360    0.8230 C   0  0  0  0  0  0  0  0  0  0  0  0
   -5.9360    0.7320    0.8180 C   0  0  0  0  0  0  0  0  0  0  0  0
    4.8050    3.6980    1.0540 N   0  0  0  0  0  0  0  0  0  0  0  0
    3.9820   -0.7940    2.9820 C   0  0  0  0  0  0  0  0  0  0  0  0
    4.5060   -1.6730    4.1190 C   0  0  0  0  0  0  0  0  0  0  0  0
   -3.2330   -0.4600   -0.2640 C   0  0  0  0  0  0  0  0  0  0  0  0
   -4.4350   -1.2000    0.3350 C   0  0  0  0  0  0  0  0  0  0  0  0
   -5.1460   -0.4210    1.4470 C   0  0  0  0  0  0  0  0  0  0  0  0
    1.2330   -1.3230    0.4300 N   0  0  0  0  0  0  0  0  0  0  0  0
    4.6470    0.0400    0.2730 N   0  0  0  0  0  0  0  0  0  0  0  0
   -0.1320   -0.0450    1.6280 O   0  0  0  0  0  0  0  0  0  0  0  0
    3.5120    2.0680    0.1510 O   0  0  0  0  0  0  0  0  0  0  0  0
    7.3290   -1.0340    0.6350 O   0  0  0  0  0  0  0  0  0  0  0  0
    3.4650   -1.3630   -0.9740 O   0  0  0  0  0  0  0  0  0  0  0  0
   -8.6200    1.0620    0.6810 O   0  0  0  0  0  0  0  0  0  0  0  0
    5.2540    2.5430   -1.8570 H   0  0  0  0  0  0  0  0  0  0  0  0
    6.8600    3.9180    1.4730 H   0  0  0  0  0  0  0  0  0  0  0  0
    6.0450    5.3950    0.8780 H   0  0  0  0  0  0  0  0  0  0  0  0
    7.5280    3.7330   -0.7750 H   0  0  0  0  0  0  0  0  0  0  0  0
    6.1260    4.6840   -1.3690 H   0  0  0  0  0  0  0  0  0  0  0  0
    6.0270   -2.0100   -0.6390 H   0  0  0  0  0  0  0  0  0  0  0  0
   -8.6870    0.2540   -2.2710 H   0  0  0  0  0  0  0  0  0  0  0  0
   -8.9180   -1.2340   -1.3220 H   0  0  0  0  0  0  0  0  0  0  0  0
   -6.9740   -0.9820   -1.9760 H   0  0  0  0  0  0  0  0  0  0  0  0
   -6.0860   -2.4540   -0.2470 H   0  0  0  0  0  0  0  0  0  0  0  0
   -3.2520   -3.0580    0.1590 H   0  0  0  0  0  0  0  0  0  0  0  0
   -3.6710   -2.5990    1.8660 H   0  0  0  0  0  0  0  0  0  0  0  0
    2.1840    0.3160    1.3300 H   0  0  0  0  0  0  0  0  0  0  0  0
    1.9830   -1.5970    2.9510 H   0  0  0  0  0  0  0  0  0  0  0  0
    3.1560   -2.5050    1.9670 H   0  0  0  0  0  0  0  0  0  0  0  0
    4.3180    1.0820    3.9870 H   0  0  0  0  0  0  0  0  0  0  0  0
    3.0330    1.1270    2.7560 H   0  0  0  0  0  0  0  0  0  0  0  0
    2.7360    0.3390    4.3250 H   0  0  0  0  0  0  0  0  0  0  0  0
    5.2600    0.1330   -1.7300 H   0  0  0  0  0  0  0  0  0  0  0  0
    7.3890    1.3870   -1.1820 H   0  0  0  0  0  0  0  0  0  0  0  0
    6.8500    1.4490    0.5130 H   0  0  0  0  0  0  0  0  0  0  0  0
   -2.3140   -0.5610    1.7470 H   0  0  0  0  0  0  0  0  0  0  0  0
   -5.2450    1.4580    0.3900 H   0  0  0  0  0  0  0  0  0  0  0  0
   -6.5490    1.2130    1.5800 H   0  0  0  0  0  0  0  0  0  0  0  0
    4.2200    3.9540    1.7850 H   0  0  0  0  0  0  0  0  0  0  0  0
    4.7860   -0.6030    2.2710 H   0  0  0  0  0  0  0  0  0  0  0  0
    3.7020   -1.8640    4.8310 H   0  0  0  0  0  0  0  0  0  0  0  0
    4.8630   -2.6190    3.7120 H   0  0  0  0  0  0  0  0  0  0  0  0
    5.3260   -1.1630    4.6250 H   0  0  0  0  0  0  0  0  0  0  0  0
   -3.2920    0.6230   -0.1630 H   0  0  0  0  0  0  0  0  0  0  0  0
   -2.9820   -0.7780   -1.2760 H   0  0  0  0  0  0  0  0  0  0  0  0
   -4.4050   -0.0210    2.1390 H   0  0  0  0  0  0  0  0  0  0  0  0
   -5.8280   -1.0800    1.9840 H   0  0  0  0  0  0  0  0  0  0  0  0
    1.3370   -1.9970   -0.2600 H   0  0  0  0  0  0  0  0  0  0  0  0
    4.7380    0.5220    1.1100 H   0  0  0  0  0  0  0  0  0  0  0  0
    6.7540   -1.0260    1.4130 H   0  0  0  0  0  0  0  0  0  0  0  0
    7.8130   -1.1070   -1.9770 S   0  0  0  0  0  0  0  0  0  0  0  0
    8.5820    0.0890   -1.9770 O   0  0  0  0  0  0  0  0  0  0  0  0
    8.4370   -2.3790   -2.0880 O   0  0  0  0  0  0  0  0  0  0  0  0
    6.9520   -1.0000   -3.2270 O   0  0  0  0  0  0  0  0  0  0  0  0
    7.4570   -0.9930   -4.0520 H   0  0  0  0  0  0  0  0  0  0  0  0
  -10.4380    0.2400   -1.0510 C   0  0  0  0  0  0  0  0  0  0  0  0
  -10.9400    1.4190   -1.5710 C   0  0  0  0  0  0  0  0  0  0  0  0
  -12.2550    1.7740   -1.3350 C   0  0  0  0  0  0  0  0  0  0  0  0
  -13.0680    0.9510   -0.5790 C   0  0  0  0  0  0  0  0  0  0  0  0
  -12.5660   -0.2280   -0.0600 C   0  0  0  0  0  0  0  0  0  0  0  0
  -11.2530   -0.5860   -0.3000 C   0  0  0  0  0  0  0  0  0  0  0  0
  -10.3040    2.0620   -2.1620 H   0  0  0  0  0  0  0  0  0  0  0  0
  -12.6460    2.6950   -1.7410 H   0  0  0  0  0  0  0  0  0  0  0  0
  -14.0950    1.2290   -0.3940 H   0  0  0  0  0  0  0  0  0  0  0  0
  -13.2010   -0.8710    0.5310 H   0  0  0  0  0  0  0  0  0  0  0  0
  -10.8610   -1.5070    0.1060 H   0  0  0  0  0  0  0  0  0  0  0  0
   -5.5220    0.0490   -1.9030 H   0  0  0  0  0  0  0  0  0  0  0  0
   -4.8340   -2.2560   -1.4980 H   0  0  0  0  0  0  0  0  0  0  0  0
  8  9  1  0  0  0  0
  8 34  2  0  0  0  0
  7  8  1  0  0  0  0
  7 10  1  0  0  0  0
 10 11  1  0  0  0  0
  7 21  1  0  0  0  0
 11 26  1  0  0  0  0
 12 26  1  0  0  0  0
 12 20  1  0  0  0  0
 21 27  1  0  0  0  0
 26 27  1  0  0  0  0
 25 26  1  0  0  0  0
 20 25  1  0  0  0  0
  6 20  1  0  0  0  0
  6 13  1  0  0  0  0
 13 28  1  0  0  0  0
 13 30  2  0  0  0  0
 14 28  1  0  0  0  0
 17 33  2  0  0  0  0
  3  4  1  0  0  0  0
  3 22  1  0  0  0  0
 16 23  1  0  0  0  0
 15 23  1  0  0  0  0
 23 24  1  0  0  0  0
  1  4  1  0  0  0  0
 14 15  1  0  0  0  0
 14 17  1  0  0  0  0
 17 29  1  0  0  0  0
  2 22  1  0  0  0  0
  1  2  1  0  0  0  0
  1 19  1  0  0  0  0
 18 29  1  0  0  0  0
  2 31  2  0  0  0  0
 18 19  1  0  0  0  0
  5 18  1  0  0  0  0
  5 32  1  0  0  0  0
  1 35  1  0  0  0  0
  3 36  1  0  0  0  0
  3 37  1  0  0  0  0
  4 38  1  0  0  0  0
  4 39  1  0  0  0  0
  5 40  1  0  0  0  0
  9 41  1  0  0  0  0
  9 42  1  0  0  0  0
 10 43  1  0  0  0  0
 11 44  1  0  0  0  0
 12 45  1  0  0  0  0
 12 46  1  0  0  0  0
 14 47  1  0  0  0  0
 15 48  1  0  0  0  0
 15 49  1  0  0  0  0
 16 50  1  0  0  0  0
 16 51  1  0  0  0  0
 16 52  1  0  0  0  0
 18 53  1  0  0  0  0
 19 54  1  0  0  0  0
 19 55  1  0  0  0  0
 20 56  1  0  0  0  0
 21 57  1  0  0  0  0
 21 58  1  0  0  0  0
 22 59  1  0  0  0  0
 23 60  1  0  0  0  0
 24 61  1  0  0  0  0
 24 62  1  0  0  0  0
 24 63  1  0  0  0  0
 25 64  1  0  0  0  0
 25 65  1  0  0  0  0
 27 66  1  0  0  0  0
 27 67  1  0  0  0  0
 28 68  1  0  0  0  0
 29 69  1  0  0  0  0
 32 70  1  0  0  0  0
  5 71  1  0  0  0  0
 71 72  2  0  0  0  0
 71 73  2  0  0  0  0
 71 74  1  0  0  0  0
 74 75  1  0  0  0  0
  9 76  1  0  0  0  0
 76 77  1  0  0  0  0
 77 78  2  0  0  0  0
 78 79  1  0  0  0  0
 79 80  2  0  0  0  0
 80 81  1  0  0  0  0
 76 81  2  0  0  0  0
 77 82  1  0  0  0  0
 78 83  1  0  0  0  0
 79 84  1  0  0  0  0
 80 85  1  0  0  0  0
 81 86  1  0  0  0  0
 10 87  1  0  0  0  0
 11 88  1  0  0  0  0
M  END
> <OPENEYE_ISO_SMILES>
CC(C)C[C@@H](C(=O)N[C@@H](C[C@@H]1CCNC1=O)[C@H](O)S(=O)(=O)O)NC(=O)OC2CC3(C2)CCN(CC3)C(=O)Cc4ccccc4

> <OPENEYE_INCHI>
InChI=1S/C30H44N4O9S/c1-19(2)14-23(27(37)32-24(28(38)44(40,41)42)16-21-8-11-31-26(21)36)33-29(39)43-22-17-30(18-22)9-12-34(13-10-30)25(35)15-20-6-4-3-5-7-20/h3-7,19,21-24,28,38H,8-18H2,1-2H3,(H,31,36)(H,32,37)(H,33,39)(H,40,41,42)/t21-,23-,24-,28+/m0/s1

> <OPENEYE_INCHIKEY>
YKVWDIALSLITCN-YZIKFRCASA-N

> <FORMULA>
C30H44N4O9S

$$$$
