URR
  -OEChem-02242320043D

 75 76  0     1  0  0  0  0  0999 V2000
    6.0940   -2.9620   -0.9800 C   0  0  0  0  0  0  0  0  0  0  0  0
    5.0990   -4.6950    0.2040 C   0  0  0  0  0  0  0  0  0  0  0  0
    4.5610   -3.3910    0.8350 C   0  0  0  0  0  0  0  0  0  0  0  0
    2.5520    3.3390   -2.3990 C   0  0  0  0  0  0  0  0  0  0  0  0
    4.9230   -2.3460   -0.2460 C   0  0  1  0  0  0  0  0  0  0  0  0
   -1.6150    0.0890   -0.5490 C   0  0  0  0  0  0  0  0  0  0  0  0
    0.7830    0.5130   -0.4800 C   0  0  1  0  0  0  0  0  0  0  0  0
    0.9850    1.9040   -1.0850 C   0  0  0  0  0  0  0  0  0  0  0  0
    2.2640    1.9130   -1.9260 C   0  0  0  0  0  0  0  0  0  0  0  0
    2.0820    1.0000   -3.1400 C   0  0  0  0  0  0  0  0  0  0  0  0
    1.8590    0.2480    0.5410 C   0  0  0  0  0  0  0  0  0  0  0  0
    4.1310   -0.4130    1.1240 C   0  0  2  0  0  0  0  0  0  0  0  0
    4.5770    0.8270    1.9020 C   0  0  1  0  0  0  0  0  0  0  0  0
    5.3350   -1.0240    0.4040 C   0  0  0  0  0  0  0  0  0  0  0  0
   -3.9600   -0.2740   -0.8110 C   0  0  0  0  0  0  0  0  0  0  0  0
   -5.2540   -0.1670   -0.0020 C   0  0  0  0  0  0  0  0  0  0  0  0
    5.6490    0.4780    2.7800 O   0  0  0  0  0  0  0  0  0  0  0  0
   -1.4920   -0.2680   -1.7030 O   0  0  0  0  0  0  0  0  0  0  0  0
   -0.5300    0.4470    0.1660 N   0  0  0  0  0  0  0  0  0  0  0  0
    3.1150   -0.0320    0.1400 N   0  0  0  0  0  0  0  0  0  0  0  0
    6.1700   -4.2770   -0.7090 N   0  0  0  0  0  0  0  0  0  0  0  0
    6.8500   -2.3590   -1.7120 O   0  0  0  0  0  0  0  0  0  0  0  0
    1.5950    0.2860    1.7240 O   0  0  0  0  0  0  0  0  0  0  0  0
   -2.8360    0.1260    0.0180 O   0  0  0  0  0  0  0  0  0  0  0  0
    5.1380    2.1010    0.7390 S   0  0  0  0  0  0  0  0  0  0  0  0
    5.4980   -5.3520    0.9760 H   0  0  0  0  0  0  0  0  0  0  0  0
    3.4830   -3.4450    0.9810 H   0  0  0  0  0  0  0  0  0  0  0  0
    2.6820    3.9900   -1.5340 H   0  0  0  0  0  0  0  0  0  0  0  0
    4.0840   -2.1940   -0.9250 H   0  0  0  0  0  0  0  0  0  0  0  0
    3.7400    1.2110    2.4850 H   0  0  0  0  0  0  0  0  0  0  0  0
    6.1340   -1.2060    1.1230 H   0  0  0  0  0  0  0  0  0  0  0  0
    5.6870   -0.3350   -0.3640 H   0  0  0  0  0  0  0  0  0  0  0  0
   -3.8200   -1.3040   -1.1390 H   0  0  0  0  0  0  0  0  0  0  0  0
   -4.0200    0.3800   -1.6810 H   0  0  0  0  0  0  0  0  0  0  0  0
    6.4290    0.1280    2.3290 H   0  0  0  0  0  0  0  0  0  0  0  0
   -0.6190    0.6630    1.1070 H   0  0  0  0  0  0  0  0  0  0  0  0
    3.3460    0.0180   -0.8010 H   0  0  0  0  0  0  0  0  0  0  0  0
    6.8470   -4.8710   -1.0680 H   0  0  0  0  0  0  0  0  0  0  0  0
    5.6680    3.2180    1.6260 O   0  0  0  0  0  0  0  0  0  0  0  0
    6.2790    1.6520    0.0210 O   0  0  0  0  0  0  0  0  0  0  0  0
    4.0310    2.6840    0.0660 O   0  0  0  0  0  0  0  0  0  0  0  0
    6.0080    3.9800    1.1380 H   0  0  0  0  0  0  0  0  0  0  0  0
   -5.1690   -1.0840    1.2200 C   0  0  0  0  0  0  0  0  0  0  0  0
   -5.4490    1.2790    0.4590 C   0  0  0  0  0  0  0  0  0  0  0  0
   -6.6570   -0.6670   -1.0370 S   0  0  1  0  0  0  0  0  0  0  0  0
   -8.0350   -0.4820    0.0470 C   0  0  0  0  0  0  0  0  0  0  0  0
   -8.7090    0.7230    0.1070 C   0  0  0  0  0  0  0  0  0  0  0  0
   -9.7900    0.8690    0.9570 C   0  0  0  0  0  0  0  0  0  0  0  0
  -10.1960   -0.1910    1.7460 C   0  0  0  0  0  0  0  0  0  0  0  0
   -9.5220   -1.3960    1.6850 C   0  0  0  0  0  0  0  0  0  0  0  0
   -8.4440   -1.5430    0.8320 C   0  0  0  0  0  0  0  0  0  0  0  0
   -6.8930    0.3250   -2.0260 O   0  0  0  0  0  0  0  0  0  0  0  0
    4.3080   -5.2010   -0.3500 H   0  0  0  0  0  0  0  0  0  0  0  0
    5.0700   -3.1740    1.7740 H   0  0  0  0  0  0  0  0  0  0  0  0
    3.4630    3.3460   -2.9980 H   0  0  0  0  0  0  0  0  0  0  0  0
    1.7180    3.6980   -3.0020 H   0  0  0  0  0  0  0  0  0  0  0  0
    0.8380   -0.2380   -1.2690 H   0  0  0  0  0  0  0  0  0  0  0  0
    0.1330    2.1530   -1.7170 H   0  0  0  0  0  0  0  0  0  0  0  0
    1.0720    2.6390   -0.2850 H   0  0  0  0  0  0  0  0  0  0  0  0
    3.0980    1.5540   -1.3230 H   0  0  0  0  0  0  0  0  0  0  0  0
    1.2920    1.3960   -3.7780 H   0  0  0  0  0  0  0  0  0  0  0  0
    3.0140    0.9530   -3.7030 H   0  0  0  0  0  0  0  0  0  0  0  0
    1.8090   -0.0010   -2.8050 H   0  0  0  0  0  0  0  0  0  0  0  0
    3.7110   -1.1440    1.8150 H   0  0  0  0  0  0  0  0  0  0  0  0
   -4.3260   -0.7840    1.8420 H   0  0  0  0  0  0  0  0  0  0  0  0
   -6.0910   -1.0080    1.7960 H   0  0  0  0  0  0  0  0  0  0  0  0
   -5.0300   -2.1150    0.8920 H   0  0  0  0  0  0  0  0  0  0  0  0
   -5.5100    1.9320   -0.4110 H   0  0  0  0  0  0  0  0  0  0  0  0
   -6.3710    1.3550    1.0350 H   0  0  0  0  0  0  0  0  0  0  0  0
   -4.6060    1.5790    1.0810 H   0  0  0  0  0  0  0  0  0  0  0  0
   -8.3920    1.5510   -0.5100 H   0  0  0  0  0  0  0  0  0  0  0  0
  -10.3160    1.8100    1.0040 H   0  0  0  0  0  0  0  0  0  0  0  0
  -11.0400   -0.0770    2.4100 H   0  0  0  0  0  0  0  0  0  0  0  0
   -9.8390   -2.2240    2.3020 H   0  0  0  0  0  0  0  0  0  0  0  0
   -7.9170   -2.4850    0.7840 H   0  0  0  0  0  0  0  0  0  0  0  0
 15 16  1  0  0  0  0
 15 24  1  0  0  0  0
  6 24  1  0  0  0  0
  6 19  1  0  0  0  0
  6 18  2  0  0  0  0
  2  3  1  0  0  0  0
  2 21  1  0  0  0  0
  7 19  1  0  0  0  0
 11 23  2  0  0  0  0
  3  5  1  0  0  0  0
  1 21  1  0  0  0  0
  7 11  1  0  0  0  0
 11 20  1  0  0  0  0
  7  8  1  0  0  0  0
  1  5  1  0  0  0  0
  5 14  1  0  0  0  0
  1 22  2  0  0  0  0
  8  9  1  0  0  0  0
  4  9  1  0  0  0  0
  9 10  1  0  0  0  0
 12 20  1  0  0  0  0
 12 14  1  0  0  0  0
 12 13  1  0  0  0  0
 13 17  1  0  0  0  0
 13 25  1  0  0  0  0
  2 26  1  0  0  0  0
  3 27  1  0  0  0  0
  4 28  1  0  0  0  0
  5 29  1  0  0  0  0
 13 30  1  0  0  0  0
 14 31  1  0  0  0  0
 14 32  1  0  0  0  0
 15 33  1  0  0  0  0
 15 34  1  0  0  0  0
 17 35  1  0  0  0  0
 19 36  1  0  0  0  0
 20 37  1  0  0  0  0
 21 38  1  0  0  0  0
 25 39  1  0  0  0  0
 25 40  2  0  0  0  0
 25 41  2  0  0  0  0
 39 42  1  0  0  0  0
 16 43  1  0  0  0  0
 16 44  1  0  0  0  0
 16 45  1  0  0  0  0
 45 46  1  0  0  0  0
 46 47  1  0  0  0  0
 47 48  2  0  0  0  0
 48 49  1  0  0  0  0
 49 50  2  0  0  0  0
 50 51  1  0  0  0  0
 46 51  2  0  0  0  0
 45 52  2  0  0  0  0
  2 53  1  0  0  0  0
  3 54  1  0  0  0  0
  4 55  1  0  0  0  0
  4 56  1  0  0  0  0
  7 57  1  0  0  0  0
  8 58  1  0  0  0  0
  8 59  1  0  0  0  0
  9 60  1  0  0  0  0
 10 61  1  0  0  0  0
 10 62  1  0  0  0  0
 10 63  1  0  0  0  0
 12 64  1  0  0  0  0
 43 65  1  0  0  0  0
 43 66  1  0  0  0  0
 43 67  1  0  0  0  0
 44 68  1  0  0  0  0
 44 69  1  0  0  0  0
 44 70  1  0  0  0  0
 47 71  1  0  0  0  0
 48 72  1  0  0  0  0
 49 73  1  0  0  0  0
 50 74  1  0  0  0  0
 51 75  1  0  0  0  0
M  END
> <OPENEYE_ISO_SMILES>
CC(C)C[C@@H](C(=O)N[C@@H](C[C@@H]1CCNC1=O)[C@@H](O)S(=O)(=O)O)NC(=O)OCC(C)(C)[S@](=O)c2ccccc2

> <OPENEYE_INCHI>
InChI=1S/C24H37N3O9S2/c1-15(2)12-18(27-23(31)36-14-24(3,4)37(32)17-8-6-5-7-9-17)21(29)26-19(22(30)38(33,34)35)13-16-10-11-25-20(16)28/h5-9,15-16,18-19,22,30H,10-14H2,1-4H3,(H,25,28)(H,26,29)(H,27,31)(H,33,34,35)/t16-,18-,19-,22-,37+/m0/s1

> <OPENEYE_INCHIKEY>
SNFBJKJTJOFDKW-APWRVBRDSA-N

> <FORMULA>
C24H37N3O9S2

$$$$
