8H8
  -OEChem-02242320013D

 14 14  0     0  0  0  0  0  0999 V2000
   -1.0900   -1.9620    0.0020 F   0  0  0  0  0  0  0  0  0  0  0  0
   -0.2960   -0.8700    0.0060 C   0  0  0  0  0  0  0  0  0  0  0  0
    1.0770   -1.0130    0.0140 C   0  0  0  0  0  0  0  0  0  0  0  0
    1.8940    0.1100    0.0180 C   0  0  0  0  0  0  0  0  0  0  0  0
    3.2440   -0.0360    0.0250 O   0  0  0  0  0  0  0  0  0  0  0  0
    1.3340    1.3820    0.0160 C   0  0  0  0  0  0  0  0  0  0  0  0
   -0.0340    1.5360    0.0090 C   0  0  0  0  0  0  0  0  0  0  0  0
   -0.8620    0.4100   -0.0020 C   0  0  0  0  0  0  0  0  0  0  0  0
   -2.2860    0.5660   -0.0100 C   0  0  0  0  0  0  0  0  0  0  0  0
   -3.4150    0.6890   -0.0160 N   0  0  0  0  0  0  0  0  0  0  0  0
    1.5170   -2.0000    0.0160 H   0  0  0  0  0  0  0  0  0  0  0  0
    3.6390   -0.0770   -0.8570 H   0  0  0  0  0  0  0  0  0  0  0  0
    1.9740    2.2520    0.0200 H   0  0  0  0  0  0  0  0  0  0  0  0
   -0.4670    2.5260    0.0070 H   0  0  0  0  0  0  0  0  0  0  0  0
  9 10  3  0  0  0  0
  8  9  1  0  0  0  0
  7  8  2  0  0  0  0
  2  8  1  0  0  0  0
  6  7  1  0  0  0  0
  1  2  1  0  0  0  0
  2  3  2  0  0  0  0
  4  6  2  0  0  0  0
  3  4  1  0  0  0  0
  4  5  1  0  0  0  0
  3 11  1  0  0  0  0
  5 12  1  0  0  0  0
  6 13  1  0  0  0  0
  7 14  1  0  0  0  0
M  END
> <OPENEYE_ISO_SMILES>
c1cc(c(cc1O)F)C#N

> <OPENEYE_INCHI>
InChI=1S/C7H4FNO/c8-7-3-6(10)2-1-5(7)4-9/h1-3,10H

> <OPENEYE_INCHIKEY>
REIVHYDACHXPNH-UHFFFAOYSA-N

> <FORMULA>
C7H4FNO

$$$$
