@<TRIPOS>MOLECULE
/home/pku/3cl/gett_pdb/7RN4/7RN4_mol2/ligand/7RN4_H69.pdb
 24 26 0 0 0
SMALL
GASTEIGER

@<TRIPOS>ATOM
      1  C1        14.8340   -1.6760   17.2180 C.ar  401  H69401      0.1442
      2  C10        8.4320    0.7230   20.4320 C.ar  401  H69401     -0.0034
      3  C11        7.0700    0.9610   20.3760 C.ar  401  H69401      0.0119
      4  C12        6.3180    0.4010   19.3550 C.ar  401  H69401      0.0682
      5  C13        6.9400   -0.3850   18.3900 C.ar  401  H69401      0.0679
      6  C15        8.3120   -0.6180   18.4440 C.ar  401  H69401      0.0080
      7  C18       16.1440   -3.7030   17.4070 C.ar  401  H69401      0.3715
      8  C2        14.3810   -0.4820   18.0120 C.2   401  H69401      0.2671
      9  C21       15.0340   -3.0880   15.2940 C.ar  401  H69401      0.2848
     10  C23       14.5240   -1.9020   15.9270 C.ar  401  H69401      0.0865
     11  C24       10.5610   -0.3080   19.5690 C.3   401  H69401      0.0258
     12  C5        12.5110   -1.7650   19.0870 C.3   401  H69401      0.0941
     13  C6        11.0690   -1.4700   18.7050 C.3   401  H69401      0.0259
     14  C7        11.4330    0.9300   19.3270 C.3   401  H69401      0.0259
     15  C8        12.8970    0.5990   19.6100 C.3   401  H69401      0.0941
     16  C9         9.0750   -0.0620   19.4730 C.ar  401  H69401     -0.0215
     17  N17       15.6200   -2.5490   17.9250 N.ar  401  H69401     -0.1860
     18  N20       15.8160   -3.9070   16.0950 N.ar  401  H69401     -0.1517
     19  N4        13.3320   -0.5740   18.8400 N.am  401  H69401     -0.2748
     20  O19       16.8410   -4.4750   18.0430 O.2   401  H69401     -0.2425
     21  O22       14.8220   -3.4130   14.1460 O.2   401  H69401     -0.2650
     22  O3        15.0380    0.5390   17.8250 O.2   401  H69401     -0.2682
     23 CL14        6.0010   -1.0830   17.0940 Cl    401  H69401     -0.0814
     24 CL16        4.6020    0.7140   19.3010 Cl    401  H69401     -0.0814
@<TRIPOS>BOND
     1    21     9    2
     2     9    10   ar
     3     9    18   ar
     4    10     1   ar
     5    18     7   ar
     6    23     5    1
     7     1    17   ar
     8     1     8    1
     9     7    17   ar
    10     7    20    2
    11    22     8    2
    12     8    19   am
    13     5     6   ar
    14     5     4   ar
    15     6    16   ar
    16    13    12    1
    17    13    11    1
    18    19    12    1
    19    19    15    1
    20    24     4    1
    21    14    11    1
    22    14    15    1
    23     4     3   ar
    24    16    11    1
    25    16     2   ar
    26     3     2   ar
