3X5
  -OEChem-02242320003D

 69 73  0     1  0  0  0  0  0999 V2000
    1.9430    0.1110   -2.8710 O   0  0  0  0  0  0  0  0  0  0  0  0
    3.0410   -0.3920   -2.9030 C   0  0  0  0  0  0  0  0  0  0  0  0
    3.6950   -0.8550   -1.6270 C   0  0  2  0  0  0  0  0  0  0  0  0
    3.9730   -2.3570   -1.7120 C   0  0  0  0  0  0  0  0  0  0  0  0
    4.7370   -2.7970   -0.4900 C   0  0  0  0  0  0  0  0  0  0  0  0
    4.2080   -3.3290    0.6550 N   0  0  0  0  0  0  0  0  0  0  0  0
    5.2380   -3.5820    1.4910 C   0  0  0  0  0  0  0  0  0  0  0  0
    6.3490   -3.2280    0.9050 N   0  0  0  0  0  0  0  0  0  0  0  0
    6.0720   -2.7470   -0.3170 C   0  0  0  0  0  0  0  0  0  0  0  0
    2.8010   -0.5860   -0.4930 N   0  0  0  0  0  0  0  0  0  0  0  0
    2.9690    0.7890   -0.0050 C   0  0  0  0  0  0  0  0  0  0  0  0
    2.0230    1.0310    1.1740 C   0  0  1  0  0  0  0  0  0  0  0  0
    2.1040    2.4980    1.6050 C   0  0  0  0  0  0  0  0  0  0  0  0
    1.5790    3.3890    0.4760 C   0  0  2  0  0  0  0  0  0  0  0  0
    1.6900    4.8560    0.8990 C   0  0  0  0  0  0  0  0  0  0  0  0
    1.1620    5.7540   -0.2210 C   0  0  0  0  0  0  0  0  0  0  0  0
   -0.3040    5.4140   -0.4960 C   0  0  0  0  0  0  0  0  0  0  0  0
   -0.4150    3.9500   -0.9230 C   0  0  0  0  0  0  0  0  0  0  0  0
    0.1140    3.0480    0.1940 C   0  0  1  0  0  0  0  0  0  0  0  0
    0.0100    1.5850   -0.2490 C   0  0  0  0  0  0  0  0  0  0  0  0
    0.6430    0.7340    0.7670 N   0  0  0  0  0  0  0  0  0  0  0  0
   -0.0290   -0.2980    1.3160 C   0  0  0  0  0  0  0  0  0  0  0  0
    0.5280   -1.0330    2.1080 O   0  0  0  0  0  0  0  0  0  0  0  0
   -1.4410   -0.5350    0.9540 C   0  0  0  0  0  0  0  0  0  0  0  0
   -1.8220   -0.5720   -0.3890 C   0  0  0  0  0  0  0  0  0  0  0  0
   -3.1390   -0.7930   -0.7250 C   0  0  0  0  0  0  0  0  0  0  0  0
   -4.0920   -0.9810    0.2750 C   0  0  0  0  0  0  0  0  0  0  0  0
   -3.7130   -0.9440    1.6170 C   0  0  0  0  0  0  0  0  0  0  0  0
   -2.3960   -0.7290    1.9550 C   0  0  0  0  0  0  0  0  0  0  0  0
   -5.5100   -1.2200   -0.0880 C   0  0  0  0  0  0  0  0  0  0  0  0
   -5.8910   -1.2630   -1.4280 C   0  0  0  0  0  0  0  0  0  0  0  0
   -7.2120   -1.4850   -1.7600 C   0  0  0  0  0  0  0  0  0  0  0  0
   -8.1570   -1.6660   -0.7650 C   0  0  0  0  0  0  0  0  0  0  0  0
   -7.7840   -1.6240    0.5660 C   0  0  0  0  0  0  0  0  0  0  0  0
   -6.4650   -1.4080    0.9100 C   0  0  0  0  0  0  0  0  0  0  0  0
    3.5520   -0.5130   -3.8470 H   0  0  0  0  0  0  0  0  0  0  0  0
    4.6340   -0.3190   -1.4850 H   0  0  0  0  0  0  0  0  0  0  0  0
    3.0290   -2.8990   -1.7650 H   0  0  0  0  0  0  0  0  0  0  0  0
    4.5630   -2.5670   -2.6050 H   0  0  0  0  0  0  0  0  0  0  0  0
    3.2690   -3.4940    0.8320 H   0  0  0  0  0  0  0  0  0  0  0  0
    5.1560   -4.0050    2.4810 H   0  0  0  0  0  0  0  0  0  0  0  0
    6.7920   -2.3790   -1.0320 H   0  0  0  0  0  0  0  0  0  0  0  0
    1.8400   -0.7680   -0.7390 H   0  0  0  0  0  0  0  0  0  0  0  0
    3.9990    0.9370    0.3190 H   0  0  0  0  0  0  0  0  0  0  0  0
    2.7360    1.4900   -0.8070 H   0  0  0  0  0  0  0  0  0  0  0  0
    2.3070    0.3890    2.0080 H   0  0  0  0  0  0  0  0  0  0  0  0
    1.4990    2.6490    2.4990 H   0  0  0  0  0  0  0  0  0  0  0  0
    3.1410    2.7570    1.8200 H   0  0  0  0  0  0  0  0  0  0  0  0
    2.1720    3.2240   -0.4240 H   0  0  0  0  0  0  0  0  0  0  0  0
    1.1020    5.0180    1.8020 H   0  0  0  0  0  0  0  0  0  0  0  0
    2.7340    5.0980    1.0970 H   0  0  0  0  0  0  0  0  0  0  0  0
    1.2430    6.7980    0.0810 H   0  0  0  0  0  0  0  0  0  0  0  0
    1.7490    5.5900   -1.1250 H   0  0  0  0  0  0  0  0  0  0  0  0
   -0.8900    5.5740    0.4090 H   0  0  0  0  0  0  0  0  0  0  0  0
   -0.6830    6.0550   -1.2920 H   0  0  0  0  0  0  0  0  0  0  0  0
   -1.4590    3.7070   -1.1210 H   0  0  0  0  0  0  0  0  0  0  0  0
    0.1720    3.7900   -1.8270 H   0  0  0  0  0  0  0  0  0  0  0  0
   -0.4770    3.2020    1.0980 H   0  0  0  0  0  0  0  0  0  0  0  0
   -1.0400    1.3090   -0.3540 H   0  0  0  0  0  0  0  0  0  0  0  0
    0.5180    1.4560   -1.2040 H   0  0  0  0  0  0  0  0  0  0  0  0
   -1.0840   -0.4260   -1.1640 H   0  0  0  0  0  0  0  0  0  0  0  0
   -3.4330   -0.8220   -1.7640 H   0  0  0  0  0  0  0  0  0  0  0  0
   -4.4510   -1.0940    2.3910 H   0  0  0  0  0  0  0  0  0  0  0  0
   -2.1030   -0.7000    2.9940 H   0  0  0  0  0  0  0  0  0  0  0  0
   -5.1550   -1.1210   -2.2050 H   0  0  0  0  0  0  0  0  0  0  0  0
   -7.5090   -1.5180   -2.7970 H   0  0  0  0  0  0  0  0  0  0  0  0
   -9.1900   -1.8390   -1.0300 H   0  0  0  0  0  0  0  0  0  0  0  0
   -8.5260   -1.7650    1.3380 H   0  0  0  0  0  0  0  0  0  0  0  0
   -6.1750   -1.3790    1.9500 H   0  0  0  0  0  0  0  0  0  0  0  0
 31 32  2  0  0  0  0
 32 33  1  0  0  0  0
 30 31  1  0  0  0  0
 33 34  2  0  0  0  0
 28 29  2  0  0  0  0
 27 28  1  0  0  0  0
 27 30  1  0  0  0  0
 30 35  2  0  0  0  0
 34 35  1  0  0  0  0
  8  9  1  0  0  0  0
  7  8  2  0  0  0  0
 24 29  1  0  0  0  0
 26 27  2  0  0  0  0
  5  9  2  0  0  0  0
  6  7  1  0  0  0  0
  1  2  2  0  0  0  0
  2  3  1  0  0  0  0
 22 24  1  0  0  0  0
 24 25  2  0  0  0  0
 25 26  1  0  0  0  0
  5  6  1  0  0  0  0
  4  5  1  0  0  0  0
  3  4  1  0  0  0  0
  3 10  1  0  0  0  0
 22 23  2  0  0  0  0
 21 22  1  0  0  0  0
 10 11  1  0  0  0  0
 11 12  1  0  0  0  0
 12 21  1  0  0  0  0
 20 21  1  0  0  0  0
 12 13  1  0  0  0  0
 19 20  1  0  0  0  0
 13 14  1  0  0  0  0
 14 19  1  0  0  0  0
 18 19  1  0  0  0  0
 14 15  1  0  0  0  0
 17 18  1  0  0  0  0
 15 16  1  0  0  0  0
 16 17  1  0  0  0  0
  2 36  1  0  0  0  0
  3 37  1  0  0  0  0
  4 38  1  0  0  0  0
  4 39  1  0  0  0  0
  6 40  1  0  0  0  0
  7 41  1  0  0  0  0
  9 42  1  0  0  0  0
 10 43  1  0  0  0  0
 11 44  1  0  0  0  0
 11 45  1  0  0  0  0
 12 46  1  0  0  0  0
 13 47  1  0  0  0  0
 13 48  1  0  0  0  0
 14 49  1  0  0  0  0
 15 50  1  0  0  0  0
 15 51  1  0  0  0  0
 16 52  1  0  0  0  0
 16 53  1  0  0  0  0
 17 54  1  0  0  0  0
 17 55  1  0  0  0  0
 18 56  1  0  0  0  0
 18 57  1  0  0  0  0
 19 58  1  0  0  0  0
 20 59  1  0  0  0  0
 20 60  1  0  0  0  0
 25 61  1  0  0  0  0
 26 62  1  0  0  0  0
 28 63  1  0  0  0  0
 29 64  1  0  0  0  0
 31 65  1  0  0  0  0
 32 66  1  0  0  0  0
 33 67  1  0  0  0  0
 34 68  1  0  0  0  0
 35 69  1  0  0  0  0
M  END
> <OPENEYE_ISO_SMILES>
c1ccc(cc1)c2ccc(cc2)C(=O)N3C[C@@H]4CCCC[C@H]4C[C@@H]3CN[C@@H](Cc5cnc[nH]5)C=O

> <OPENEYE_INCHI>
InChI=1S/C29H34N4O2/c34-19-27(15-26-16-30-20-32-26)31-17-28-14-24-8-4-5-9-25(24)18-33(28)29(35)23-12-10-22(11-13-23)21-6-2-1-3-7-21/h1-3,6-7,10-13,16,19-20,24-25,27-28,31H,4-5,8-9,14-15,17-18H2,(H,30,32)/t24-,25-,27-,28+/m0/s1

> <OPENEYE_INCHIKEY>
VZCULZJNALRGNB-DNZWLJDLSA-N

> <FORMULA>
C29H34N4O2

$$$$
