S4O
  -OEChem-02242320043D

 34 36  0     0  0  0  0  0  0999 V2000
    1.7390    0.6290   -0.4680 O   0  0  0  0  0  0  0  0  0  0  0  0
   -2.5670    1.6820   -0.0010 N   0  0  0  0  0  0  0  0  0  0  0  0
    2.5050    2.7090   -0.5770 O   0  0  0  0  0  0  0  0  0  0  0  0
    2.6990    1.5460   -0.2660 C   0  0  0  0  0  0  0  0  0  0  0  0
    1.0470   -2.8260   -0.2290 O   0  0  0  0  0  0  0  0  0  0  0  0
    3.9280    1.1700    0.3060 C   0  0  0  0  0  0  0  0  0  0  0  0
    4.1290   -0.1500    0.6520 C   0  0  0  0  0  0  0  0  0  0  0  0
    5.3000   -0.5490    1.2030 O   0  0  0  0  0  0  0  0  0  0  0  0
    3.0880   -1.0810    0.4190 C   0  0  0  0  0  0  0  0  0  0  0  0
    1.9230   -0.6620   -0.1350 C   0  0  0  0  0  0  0  0  0  0  0  0
    0.8390   -1.6380   -0.3760 C   0  0  0  0  0  0  0  0  0  0  0  0
   -2.0020    0.4960   -0.2770 C   0  0  0  0  0  0  0  0  0  0  0  0
   -0.6600    0.2290   -0.9170 C   0  0  0  0  0  0  0  0  0  0  0  0
   -1.4630   -2.1670   -1.0330 C   0  0  0  0  0  0  0  0  0  0  0  0
   -2.5880   -1.9580   -0.0120 C   0  0  0  0  0  0  0  0  0  0  0  0
   -2.8580   -0.4800    0.1190 C   0  0  0  0  0  0  0  0  0  0  0  0
   -3.9930    0.1370    0.6520 C   0  0  0  0  0  0  0  0  0  0  0  0
   -1.9820    2.9990   -0.2680 C   0  0  0  0  0  0  0  0  0  0  0  0
   -5.0850   -0.4970    1.1570 O   0  0  0  0  0  0  0  0  0  0  0  0
   -3.8200    1.4370    0.5810 N   0  0  0  0  0  0  0  0  0  0  0  0
   -0.3800   -1.2100   -0.7600 N   0  0  0  0  0  0  0  0  0  0  0  0
    4.7040    1.9040    0.4710 H   0  0  0  0  0  0  0  0  0  0  0  0
    5.9430    0.1650    1.3200 H   0  0  0  0  0  0  0  0  0  0  0  0
    3.2210   -2.1210    0.6810 H   0  0  0  0  0  0  0  0  0  0  0  0
   -0.6960    0.4870   -1.9750 H   0  0  0  0  0  0  0  0  0  0  0  0
    0.1120    0.8150   -0.4180 H   0  0  0  0  0  0  0  0  0  0  0  0
   -1.0800   -3.1840   -0.9500 H   0  0  0  0  0  0  0  0  0  0  0  0
   -1.8490   -2.0030   -2.0390 H   0  0  0  0  0  0  0  0  0  0  0  0
   -3.4900   -2.4650   -0.3550 H   0  0  0  0  0  0  0  0  0  0  0  0
   -2.2850   -2.3610    0.9540 H   0  0  0  0  0  0  0  0  0  0  0  0
   -1.4030    3.3200    0.5980 H   0  0  0  0  0  0  0  0  0  0  0  0
   -1.3310    2.9370   -1.1390 H   0  0  0  0  0  0  0  0  0  0  0  0
   -2.7790    3.7180   -0.4590 H   0  0  0  0  0  0  0  0  0  0  0  0
   -5.0280   -0.6860    2.1030 H   0  0  0  0  0  0  0  0  0  0  0  0
  7  8  1  0  0  0  0
  7  9  1  0  0  0  0
  6  7  2  0  0  0  0
  9 10  2  0  0  0  0
  4  6  1  0  0  0  0
  5 11  2  0  0  0  0
 10 11  1  0  0  0  0
  1 10  1  0  0  0  0
 11 21  1  0  0  0  0
  1  4  1  0  0  0  0
  3  4  2  0  0  0  0
 13 21  1  0  0  0  0
 14 21  1  0  0  0  0
 12 13  1  0  0  0  0
 14 15  1  0  0  0  0
  2 18  1  0  0  0  0
  2 12  1  0  0  0  0
 12 16  2  0  0  0  0
  2 20  1  0  0  0  0
 15 16  1  0  0  0  0
 16 17  1  0  0  0  0
 17 20  2  0  0  0  0
 17 19  1  0  0  0  0
  6 22  1  0  0  0  0
  8 23  1  0  0  0  0
  9 24  1  0  0  0  0
 13 25  1  0  0  0  0
 13 26  1  0  0  0  0
 14 27  1  0  0  0  0
 14 28  1  0  0  0  0
 15 29  1  0  0  0  0
 15 30  1  0  0  0  0
 18 31  1  0  0  0  0
 18 32  1  0  0  0  0
 18 33  1  0  0  0  0
 19 34  1  0  0  0  0
M  END
> <OPENEYE_ISO_SMILES>
Cn1c2c(c(n1)O)CCN(C2)C(=O)c3cc(cc(=O)o3)O

> <OPENEYE_INCHI>
InChI=1S/C13H13N3O5/c1-15-9-6-16(3-2-8(9)12(19)14-15)13(20)10-4-7(17)5-11(18)21-10/h4-5,17H,2-3,6H2,1H3,(H,14,19)

> <OPENEYE_INCHIKEY>
JMIDLJFHIRGERG-UHFFFAOYSA-N

> <FORMULA>
C13H13N3O5

$$$$
