WR1
  -OEChem-02242320043D

 55 56  0     1  0  0  0  0  0999 V2000
   -2.8470   -0.6390   -3.6830 O   0  0  0  0  0  0  0  0  0  0  0  0
   -3.3180    0.2690   -3.0050 C   0  0  0  0  0  0  0  0  0  0  0  0
   -4.4460    0.1620   -2.2420 O   0  0  0  0  0  0  0  0  0  0  0  0
   -5.0950   -1.1140   -2.2610 C   0  0  0  0  0  0  0  0  0  0  0  0
   -6.3060   -1.0620   -1.3780 C   0  0  0  0  0  0  0  0  0  0  0  0
   -6.1920   -1.3920   -0.0320 C   0  0  0  0  0  0  0  0  0  0  0  0
   -7.3190   -1.3430    0.7890 C   0  0  0  0  0  0  0  0  0  0  0  0
   -8.5520   -0.9640    0.2590 C   0  0  0  0  0  0  0  0  0  0  0  0
   -8.6590   -0.6330   -1.0930 C   0  0  0  0  0  0  0  0  0  0  0  0
   -7.5320   -0.6830   -1.9140 C   0  0  0  0  0  0  0  0  0  0  0  0
   -2.7970    1.5430   -2.8950 N   0  0  0  0  0  0  0  0  0  0  0  0
   -1.6070    1.9850   -3.5770 C   0  0  1  0  0  0  0  0  0  0  0  0
   -1.6230    3.4930   -3.8520 C   0  0  0  0  0  0  0  0  0  0  0  0
   -2.4670    3.8590   -5.0480 C   0  0  0  0  0  0  0  0  0  0  0  0
   -1.8830    3.9030   -6.3040 C   0  0  0  0  0  0  0  0  0  0  0  0
   -2.6630    4.2410   -7.4100 C   0  0  0  0  0  0  0  0  0  0  0  0
   -4.0170    4.5300   -7.2460 C   0  0  0  0  0  0  0  0  0  0  0  0
   -4.5920    4.4820   -5.9760 C   0  0  0  0  0  0  0  0  0  0  0  0
   -3.8120    4.1440   -4.8700 C   0  0  0  0  0  0  0  0  0  0  0  0
   -0.4190    1.6210   -2.6920 C   0  0  0  0  0  0  0  0  0  0  0  0
   -0.4650    1.6520   -1.4640 O   0  0  0  0  0  0  0  0  0  0  0  0
    0.6830    1.2100   -3.4350 N   0  0  0  0  0  0  0  0  0  0  0  0
    1.9180    0.7650   -2.8450 C   0  0  2  0  0  0  0  0  0  0  0  0
    3.1070    1.0430   -3.7460 C   0  0  0  0  0  0  0  0  0  0  0  0
    1.7830   -0.7290   -2.5820 C   0  0  0  0  0  0  0  0  0  0  0  0
    1.1760   -1.4710   -3.3530 O   0  0  0  0  0  0  0  0  0  0  0  0
    2.4850   -1.2510   -1.3350 C   0  0  0  0  0  0  0  0  0  0  0  0
    2.3180   -2.7500   -1.1370 C   0  0  0  0  0  0  0  0  0  0  0  0
    2.8940   -3.4610   -2.2260 O   0  0  0  0  0  0  0  0  0  0  0  0
   -4.3900   -1.8780   -1.9150 H   0  0  0  0  0  0  0  0  0  0  0  0
   -5.3760   -1.3590   -3.2910 H   0  0  0  0  0  0  0  0  0  0  0  0
   -5.2360   -1.6890    0.3890 H   0  0  0  0  0  0  0  0  0  0  0  0
   -7.2360   -1.6000    1.8410 H   0  0  0  0  0  0  0  0  0  0  0  0
   -9.4290   -0.9250    0.8980 H   0  0  0  0  0  0  0  0  0  0  0  0
   -9.6190   -0.3380   -1.5050 H   0  0  0  0  0  0  0  0  0  0  0  0
   -7.6250   -0.4240   -2.9650 H   0  0  0  0  0  0  0  0  0  0  0  0
   -3.2820    2.2090   -2.2990 H   0  0  0  0  0  0  0  0  0  0  0  0
   -1.5490    1.4120   -4.5090 H   0  0  0  0  0  0  0  0  0  0  0  0
   -0.6000    3.8660   -3.9940 H   0  0  0  0  0  0  0  0  0  0  0  0
   -2.0090    4.0380   -2.9800 H   0  0  0  0  0  0  0  0  0  0  0  0
   -0.8280    3.6800   -6.4420 H   0  0  0  0  0  0  0  0  0  0  0  0
   -2.2150    4.2790   -8.3990 H   0  0  0  0  0  0  0  0  0  0  0  0
   -4.6250    4.7930   -8.1070 H   0  0  0  0  0  0  0  0  0  0  0  0
   -5.6470    4.7070   -5.8480 H   0  0  0  0  0  0  0  0  0  0  0  0
   -4.2680    4.1080   -3.8840 H   0  0  0  0  0  0  0  0  0  0  0  0
    0.6130    1.2240   -4.4510 H   0  0  0  0  0  0  0  0  0  0  0  0
    2.0200    1.2960   -1.8940 H   0  0  0  0  0  0  0  0  0  0  0  0
    4.0390    0.7080   -3.2800 H   0  0  0  0  0  0  0  0  0  0  0  0
    3.1950    2.1150   -3.9560 H   0  0  0  0  0  0  0  0  0  0  0  0
    3.0110    0.5230   -4.7060 H   0  0  0  0  0  0  0  0  0  0  0  0
    2.0550   -0.7250   -0.4760 H   0  0  0  0  0  0  0  0  0  0  0  0
    3.5480   -0.9980   -1.4200 H   0  0  0  0  0  0  0  0  0  0  0  0
    2.8420   -3.0660   -0.2300 H   0  0  0  0  0  0  0  0  0  0  0  0
    1.2670   -3.0420   -1.0420 H   0  0  0  0  0  0  0  0  0  0  0  0
    2.5070   -4.3510   -2.2160 H   0  0  0  0  0  0  0  0  0  0  0  0
  1  2  2  0  0  0  0
  2  3  1  0  0  0  0
  2 11  1  0  0  0  0
  3  4  1  0  0  0  0
  4  5  1  0  0  0  0
  4 30  1  0  0  0  0
  4 31  1  0  0  0  0
  5  6  1  0  0  0  0
  5 10  2  0  0  0  0
  6  7  2  0  0  0  0
  6 32  1  0  0  0  0
  7  8  1  0  0  0  0
  7 33  1  0  0  0  0
  8  9  2  0  0  0  0
  8 34  1  0  0  0  0
  9 10  1  0  0  0  0
  9 35  1  0  0  0  0
 10 36  1  0  0  0  0
 11 12  1  0  0  0  0
 11 37  1  0  0  0  0
 12 20  1  0  0  0  0
 12 13  1  0  0  0  0
 12 38  1  0  0  0  0
 13 14  1  0  0  0  0
 13 39  1  0  0  0  0
 13 40  1  0  0  0  0
 14 19  2  0  0  0  0
 14 15  1  0  0  0  0
 15 16  2  0  0  0  0
 15 41  1  0  0  0  0
 16 17  1  0  0  0  0
 16 42  1  0  0  0  0
 17 18  2  0  0  0  0
 17 43  1  0  0  0  0
 18 19  1  0  0  0  0
 18 44  1  0  0  0  0
 19 45  1  0  0  0  0
 20 21  2  0  0  0  0
 20 22  1  0  0  0  0
 22 23  1  0  0  0  0
 22 46  1  0  0  0  0
 23 25  1  0  0  0  0
 23 24  1  0  0  0  0
 23 47  1  0  0  0  0
 24 48  1  0  0  0  0
 24 49  1  0  0  0  0
 24 50  1  0  0  0  0
 25 27  1  0  0  0  0
 25 26  2  0  0  0  0
 27 28  1  0  0  0  0
 27 51  1  0  0  0  0
 27 52  1  0  0  0  0
 28 29  1  0  0  0  0
 28 53  1  0  0  0  0
 28 54  1  0  0  0  0
 29 55  1  0  0  0  0
M  END
> <OPENEYE_ISO_SMILES>
C[C@H](C(=O)CCO)NC(=O)[C@H](Cc1ccccc1)NC(=O)OCc2ccccc2

> <OPENEYE_INCHI>
InChI=1S/C22H26N2O5/c1-16(20(26)12-13-25)23-21(27)19(14-17-8-4-2-5-9-17)24-22(28)29-15-18-10-6-3-7-11-18/h2-11,16,19,25H,12-15H2,1H3,(H,23,27)(H,24,28)/t16-,19+/m1/s1

> <OPENEYE_INCHIKEY>
UUOOAGBWJUGBMV-APWZRJJASA-N

> <FORMULA>
C22H26N2O5

$$$$
