W5S
  -OEChem-02242320043D

 32 34  0     0  0  0  0  0  0999 V2000
    0.2550   -0.4010   -0.8180 N   0  0  0  0  0  0  0  0  0  0  0  0
    1.5580   -0.1340   -1.4320 C   0  0  0  0  0  0  0  0  0  0  0  0
    3.3430   -0.7290    0.2750 C   0  0  0  0  0  0  0  0  0  0  0  0
    3.7880    1.2830    1.0890 C   0  0  0  0  0  0  0  0  0  0  0  0
    0.5940   -2.9180   -0.5400 C   0  0  0  0  0  0  0  0  0  0  0  0
   -0.1860   -1.6340   -0.4140 C   0  0  0  0  0  0  0  0  0  0  0  0
   -1.4180   -1.5280    0.1110 C   0  0  0  0  0  0  0  0  0  0  0  0
   -2.2550   -2.6480    0.6710 C   0  0  0  0  0  0  0  0  0  0  0  0
   -1.7890   -0.1160    0.0350 C   0  0  0  0  0  0  0  0  0  0  0  0
   -2.9140    0.6370    0.4030 C   0  0  0  0  0  0  0  0  0  0  0  0
   -1.8520    2.5280   -0.3860 C   0  0  0  0  0  0  0  0  0  0  0  0
   -0.6980    0.5450   -0.5590 C   0  0  0  0  0  0  0  0  0  0  0  0
    2.5680    0.1710   -0.3550 C   0  0  0  0  0  0  0  0  0  0  0  0
    4.1300   -0.0130    1.2050 C   0  0  0  0  0  0  0  0  0  0  0  0
   -4.0110    0.0330    0.9900 N   0  0  0  0  0  0  0  0  0  0  0  0
   -2.8980    1.9470    0.1740 N   0  0  0  0  0  0  0  0  0  0  0  0
   -0.7760    1.8620   -0.7430 N   0  0  0  0  0  0  0  0  0  0  0  0
    2.8450    1.3890    0.1380 O   0  0  0  0  0  0  0  0  0  0  0  0
    1.8810   -1.0100   -1.9940 H   0  0  0  0  0  0  0  0  0  0  0  0
    1.4750    0.7190   -2.1050 H   0  0  0  0  0  0  0  0  0  0  0  0
    3.3590   -1.7960    0.1050 H   0  0  0  0  0  0  0  0  0  0  0  0
    4.2040    2.1000    1.6600 H   0  0  0  0  0  0  0  0  0  0  0  0
    1.1920   -3.0690    0.3590 H   0  0  0  0  0  0  0  0  0  0  0  0
   -0.0960   -3.7520   -0.6620 H   0  0  0  0  0  0  0  0  0  0  0  0
    1.2510   -2.8600   -1.4080 H   0  0  0  0  0  0  0  0  0  0  0  0
   -2.0480   -2.7600    1.7350 H   0  0  0  0  0  0  0  0  0  0  0  0
   -3.3110   -2.4180    0.5290 H   0  0  0  0  0  0  0  0  0  0  0  0
   -2.0130   -3.5770    0.1540 H   0  0  0  0  0  0  0  0  0  0  0  0
   -1.8810    3.5950   -0.5540 H   0  0  0  0  0  0  0  0  0  0  0  0
    4.8610   -0.4270    1.8840 H   0  0  0  0  0  0  0  0  0  0  0  0
   -4.0090   -0.9230    1.1520 H   0  0  0  0  0  0  0  0  0  0  0  0
   -4.7820    0.5660    1.2400 H   0  0  0  0  0  0  0  0  0  0  0  0
  5  6  1  0  0  0  0
  4 14  2  0  0  0  0
  4 18  1  0  0  0  0
  3 14  1  0  0  0  0
 13 18  1  0  0  0  0
  3 13  2  0  0  0  0
  2 13  1  0  0  0  0
  1  2  1  0  0  0  0
  1  6  1  0  0  0  0
  6  7  2  0  0  0  0
  1 12  1  0  0  0  0
  7  8  1  0  0  0  0
  7  9  1  0  0  0  0
 12 17  2  0  0  0  0
  9 12  1  0  0  0  0
 11 17  1  0  0  0  0
  9 10  2  0  0  0  0
 11 16  2  0  0  0  0
 10 16  1  0  0  0  0
 10 15  1  0  0  0  0
  2 19  1  0  0  0  0
  2 20  1  0  0  0  0
  3 21  1  0  0  0  0
  4 22  1  0  0  0  0
  5 23  1  0  0  0  0
  5 24  1  0  0  0  0
  5 25  1  0  0  0  0
  8 26  1  0  0  0  0
  8 27  1  0  0  0  0
  8 28  1  0  0  0  0
 11 29  1  0  0  0  0
 14 30  1  0  0  0  0
 15 31  1  0  0  0  0
 15 32  1  0  0  0  0
M  END
> <OPENEYE_ISO_SMILES>
Cc1c(n(c2c1c(ncn2)N)Cc3ccco3)C

> <OPENEYE_INCHI>
InChI=1S/C13H14N4O/c1-8-9(2)17(6-10-4-3-5-18-10)13-11(8)12(14)15-7-16-13/h3-5,7H,6H2,1-2H3,(H2,14,15,16)

> <OPENEYE_INCHIKEY>
JOCMWXDUQHVTDD-UHFFFAOYSA-N

> <FORMULA>
C13H14N4O

$$$$
