@<TRIPOS>MOLECULE
/home/pku/3cl/gett_pdb/5SOL/5SOL_mol2/ligand/5SOL_WVM.pdb
 43 45 0 0 0
SMALL
GASTEIGER

@<TRIPOS>ATOM
      1  C10      -44.5060  -29.2300    6.0430 C.ar  201  WVM201      0.1201
      2  N12      -45.4780  -29.0840    2.4410 N.pl3 201  WVM201     -0.3110
      3  C13      -44.0980  -28.4380    1.8760 C.3   201  WVM201      0.0226
      4  C15      -44.5320  -26.2440    0.8730 C.3   201  WVM201     -0.0426
      5  C17      -43.4480  -27.6420   -0.3810 C.3   201  WVM201     -0.0426
      6  C20      -46.5280  -28.5940    1.7740 C.3   201  WVM201      0.0534
      7  C21      -45.9990  -29.4690   -0.4530 C.2   201  WVM201      0.0807
      8  C01      -50.3650  -30.7890    6.7560 C.3   201  WVM201     -0.0375
      9  C02      -50.1060  -29.9640    5.5210 C.3   201  WVM201      0.0678
     10  C04      -49.2730  -28.7100    5.9240 C.3   201  WVM201      0.0362
     11  C06      -46.8000  -29.1580    5.9440 C.ar  201  WVM201      0.1238
     12  C07      -46.7330  -29.1180    4.5650 C.ar  201  WVM201      0.0181
     13  C08      -45.5090  -29.1220    3.9170 C.ar  201  WVM201      0.1264
     14  C14      -44.5160  -27.7790    0.6830 C.3   201  WVM201      0.0271
     15  C16      -43.3980  -26.1370   -0.1320 C.3   201  WVM201     -0.0517
     16  C18      -45.9480  -28.2260    0.3830 C.3   201  WVM201      0.1727
     17  F19      -46.6920  -27.2980   -0.1900 F     201  WVM201     -0.2333
     18  N05      -48.0700  -29.1350    6.6520 N.pl3 201  WVM201     -0.3265
     19  N09      -44.4110  -29.1940    4.6970 N.ar  201  WVM201     -0.2206
     20  N11      -45.6580  -29.2210    6.6570 N.ar  201  WVM201     -0.2208
     21  O03      -51.3100  -29.5470    4.9750 O.3   201  WVM201     -0.3905
     22  O22      -45.2910  -30.5240   -0.1110 O.co2 201  WVM201     -0.5465
     23  O23      -46.7600  -29.5130   -1.4900 O.co2 201  WVM201     -0.5465
     24 H101      -43.7450  -29.2610    6.5820 H     201  WVM201      0.1048
     25 H131      -43.7560  -27.8740    2.6310 H     201  WVM201      0.0471
     26 H132      -43.4650  -29.1820    1.7690 H     201  WVM201      0.0471
     27 H151      -45.3410  -25.7730    0.5900 H     201  WVM201      0.0272
     28 H152      -44.2570  -25.9740    1.7790 H     201  WVM201      0.0272
     29 H172      -42.6510  -28.1130   -0.1610 H     201  WVM201      0.0272
     30 H171      -43.7860  -27.8610   -1.3010 H     201  WVM201      0.0272
     31 H202      -47.2150  -29.2530    1.5930 H     201  WVM201      0.0499
     32 H201      -46.9030  -27.7560    2.0510 H     201  WVM201      0.0499
     33 H011      -51.0780  -31.4150    6.5740 H     201  WVM201      0.0255
     34 H012      -50.6220  -30.1960    7.4780 H     201  WVM201      0.0255
     35 H013      -49.5590  -31.2670    6.9960 H     201  WVM201      0.0255
     36 H021      -49.6170  -30.5000    4.8780 H     201  WVM201      0.0606
     37 H041      -49.8150  -28.1480    6.4950 H     201  WVM201      0.0487
     38 H042      -49.0400  -28.2130    5.1230 H     201  WVM201      0.0487
     39 H071      -47.4790  -29.0750    4.0420 H     201  WVM201      0.0686
     40 H161      -42.5530  -25.8730    0.2660 H     201  WVM201      0.0266
     41 H162      -43.6360  -25.6040   -0.9170 H     201  WVM201      0.0266
     42 H051      -48.1250  -29.3660    7.4890 H     201  WVM201      0.1475
     43 H031      -51.1460  -29.1110    4.2680 H     201  WVM201      0.2098
@<TRIPOS>UNITY_ATOM_ATTR
22 1
charge -1
@<TRIPOS>BOND
     1    23     7   ar
     2    30     5    1
     3    41    15    1
     4     7    22   ar
     5     7    16    1
     6     5    29    1
     7     5    15    1
     8     5    14    1
     9    17    16    1
    10    15    40    1
    11    15     4    1
    12    16    14    1
    13    16     6    1
    14    27     4    1
    15    14     4    1
    16    14     3    1
    17     4    28    1
    18    31     6    1
    19    26     3    1
    20     6    32    1
    21     6     2    1
    22     3     2    1
    23     3    25    1
    24     2    13    1
    25    13    12   ar
    26    13    19   ar
    27    39    12    1
    28    43    21    1
    29    12    11   ar
    30    19     1   ar
    31    36     9    1
    32    21     9    1
    33    38    10    1
    34     9    10    1
    35     9     8    1
    36    10    37    1
    37    10    18    1
    38    11    18    1
    39    11    20   ar
    40     1    24    1
    41     1    20   ar
    42    33     8    1
    43    18    42    1
    44     8    35    1
    45     8    34    1
