@<TRIPOS>MOLECULE
/home/pku/3cl/gett_pdb/5RME/5RME_mol2/ligand/5RME_RYM.pdb
 18 20 0 0 0
SMALL
GASTEIGER

@<TRIPOS>ATOM
      1  N1         2.8420   19.1330  -37.7220 N.ar  701  RYM701     -0.2239
      2  N3         1.9620   13.1710  -31.5290 N.1   701  RYM701     -0.1908
      3  C4         4.1200   19.3620  -35.8370 C.ar  701  RYM701      0.0792
      4  C5         3.1410   19.9610  -36.6420 C.ar  701  RYM701      0.0988
      5  C6         2.6230   21.2090  -36.2920 C.ar  701  RYM701      0.0206
      6  C7         3.6280   18.0930  -37.5580 C.ar  701  RYM701      0.1788
      7  C8         5.3760   17.1370  -35.9880 C.3   701  RYM701      0.1343
      8  C10        3.6290   15.4260  -35.4270 C.ar  701  RYM701     -0.0017
      9  C13        4.3140   15.4710  -32.7530 C.ar  701  RYM701      0.0100
     10  C15        2.5740   13.8130  -32.2590 C.1   701  RYM701      0.1004
     11  C1         3.1010   21.8020  -35.1450 C.ar  701  RYM701      0.0016
     12  C11        2.9380   14.6260  -34.5320 C.ar  701  RYM701      0.0100
     13  C12        3.2870   14.6460  -33.1910 C.ar  701  RYM701      0.0684
     14  C14        4.9910   16.2590  -33.6510 C.ar  701  RYM701     -0.0017
     15  C2         4.0760   21.1890  -34.3520 C.ar  701  RYM701      0.0016
     16  C3         4.6050   19.9570  -34.6780 C.ar  701  RYM701      0.0188
     17  C9         4.6770   16.2330  -35.0030 C.ar  701  RYM701      0.0005
     18  N2         4.4420   18.1620  -36.4620 N.ar  701  RYM701     -0.3048
@<TRIPOS>BOND
     1     1     6   ar
     2     1     4   ar
     3     6    18   ar
     4     4     5   ar
     5     4     3   ar
     6    18     7    1
     7    18     3   ar
     8     5    11   ar
     9     7    17    1
    10     3    16   ar
    11     8    17   ar
    12     8    12   ar
    13    11    15   ar
    14    17    14   ar
    15    16    15   ar
    16    12    13   ar
    17    14     9   ar
    18    13     9   ar
    19    13    10    1
    20    10     2    3
