JGD
  -OEChem-02242320033D

 19 19  0     0  0  0  0  0  0999 V2000
    2.3460    1.2690   -0.0000 C   0  0  0  0  0  0  0  0  0  0  0  0
    1.6130    0.0000    0.0010 N   0  0  0  0  0  0  0  0  0  0  0  0
    2.3460   -1.2690    0.0010 C   0  0  0  0  0  0  0  0  0  0  0  0
    0.2220   -0.0000    0.0010 C   0  0  0  0  0  0  0  0  0  0  0  0
   -0.4940    1.1970   -0.0000 C   0  0  0  0  0  0  0  0  0  0  0  0
   -1.8720    1.1540    0.0000 C   0  0  0  0  0  0  0  0  0  0  0  0
   -2.5130   -0.0000    0.0010 N   0  0  0  0  0  0  0  0  0  0  0  0
   -1.8720   -1.1540    0.0020 C   0  0  0  0  0  0  0  0  0  0  0  0
   -0.4940   -1.1970   -0.0040 C   0  0  0  0  0  0  0  0  0  0  0  0
    2.5280    1.5840    1.0270 H   0  0  0  0  0  0  0  0  0  0  0  0
    3.2980    1.1380   -0.5140 H   0  0  0  0  0  0  0  0  0  0  0  0
    1.7570    2.0280   -0.5150 H   0  0  0  0  0  0  0  0  0  0  0  0
    2.5270   -1.5840   -1.0260 H   0  0  0  0  0  0  0  0  0  0  0  0
    3.2980   -1.1380    0.5150 H   0  0  0  0  0  0  0  0  0  0  0  0
    1.7570   -2.0280    0.5160 H   0  0  0  0  0  0  0  0  0  0  0  0
    0.0240    2.1450   -0.0010 H   0  0  0  0  0  0  0  0  0  0  0  0
   -2.4340    2.0760   -0.0000 H   0  0  0  0  0  0  0  0  0  0  0  0
   -2.4340   -2.0760    0.0030 H   0  0  0  0  0  0  0  0  0  0  0  0
    0.0240   -2.1450   -0.0040 H   0  0  0  0  0  0  0  0  0  0  0  0
  2  3  1  0  0  0  0
  8  9  2  0  0  0  0
  4  9  1  0  0  0  0
  7  8  1  0  0  0  0
  2  4  1  0  0  0  0
  1  2  1  0  0  0  0
  4  5  2  0  0  0  0
  6  7  2  0  0  0  0
  5  6  1  0  0  0  0
  1 10  1  0  0  0  0
  1 11  1  0  0  0  0
  1 12  1  0  0  0  0
  3 13  1  0  0  0  0
  3 14  1  0  0  0  0
  3 15  1  0  0  0  0
  5 16  1  0  0  0  0
  6 17  1  0  0  0  0
  8 18  1  0  0  0  0
  9 19  1  0  0  0  0
M  END
> <OPENEYE_ISO_SMILES>
CN(C)c1ccncc1

> <OPENEYE_INCHI>
InChI=1S/C7H10N2/c1-9(2)7-3-5-8-6-4-7/h3-6H,1-2H3

> <OPENEYE_INCHIKEY>
VHYFNPMBLIVWCW-UHFFFAOYSA-N

> <FORMULA>
C7H10N2

$$$$
