ODN
  -OEChem-02242320033D

 56 60  0     1  0  0  0  0  0999 V2000
   -1.9360   -1.7150   -1.5950 O   0  0  0  0  0  0  0  0  0  0  0  0
   -2.1590   -0.8510   -0.7840 C   0  0  0  0  0  0  0  0  0  0  0  0
   -1.1870   -0.2010    0.1660 C   0  0  2  0  0  0  0  0  0  0  0  0
   -0.2830   -1.1620    0.9080 C   0  0  2  0  0  0  0  0  0  0  0  0
   -1.0370   -2.2480    1.4430 O   0  0  0  0  0  0  0  0  0  0  0  0
    0.3360   -0.4170    1.9790 O   0  0  0  0  0  0  0  0  0  0  0  0
    0.9880    0.7680    1.5110 C   0  0  0  0  0  0  0  0  0  0  0  0
    0.8560   -1.7020    0.0360 C   0  0  1  0  0  0  0  0  0  0  0  0
    0.3240   -2.5000   -1.0240 O   0  0  0  0  0  0  0  0  0  0  0  0
    1.6530   -0.5350   -0.5470 C   0  0  2  0  0  0  0  0  0  0  0  0
    3.1480   -0.7000   -0.3880 C   0  0  0  0  0  0  0  0  0  0  0  0
    3.6080   -1.8980   -1.2440 C   0  0  0  0  0  0  0  0  0  0  0  0
    3.5730   -0.9660    1.0550 C   0  0  0  0  0  0  0  0  0  0  0  0
    3.8790    0.5410   -0.9130 C   0  0  0  0  0  0  0  0  0  0  0  0
    3.3700    1.7900   -0.2030 C   0  0  0  0  0  0  0  0  0  0  0  0
   -3.5100   -0.1930   -0.5310 C   0  0  2  0  0  0  0  0  0  0  0  0
   -4.2820    0.0270   -1.8220 C   0  0  0  0  0  0  0  0  0  0  0  0
   -3.1660    1.1270    0.1990 C   0  0  1  0  0  0  0  0  0  0  0  0
   -2.0570    0.6030    1.1680 C   0  0  1  0  0  0  0  0  0  0  0  0
   -2.6290   -0.2520    2.1630 O   0  0  0  0  0  0  0  0  0  0  0  0
   -2.4840    2.1010   -0.7660 C   0  0  0  0  0  0  0  0  0  0  0  0
   -0.9850    2.2090   -0.4400 C   0  0  0  0  0  0  0  0  0  0  0  0
   -0.3450    0.8360   -0.5970 C   0  0  1  0  0  0  0  0  0  0  0  0
    1.0790    0.7770   -0.0110 C   0  0  1  0  0  0  0  0  0  0  0  0
    1.8800    1.9780   -0.4910 C   0  0  1  0  0  0  0  0  0  0  0  0
    1.4380    3.1590    0.1900 O   0  0  0  0  0  0  0  0  0  0  0  0
   -0.5060   -2.8940    1.9280 H   0  0  0  0  0  0  0  0  0  0  0  0
    0.3980    1.6340    1.8370 H   0  0  0  0  0  0  0  0  0  0  0  0
    1.9720    0.8560    1.9590 H   0  0  0  0  0  0  0  0  0  0  0  0
    1.4890   -2.3410    0.6530 H   0  0  0  0  0  0  0  0  0  0  0  0
   -0.1850   -3.2640   -0.7240 H   0  0  0  0  0  0  0  0  0  0  0  0
    1.4460   -0.5400   -1.6450 H   0  0  0  0  0  0  0  0  0  0  0  0
    3.3650   -1.7110   -2.2900 H   0  0  0  0  0  0  0  0  0  0  0  0
    4.6850   -2.0280   -1.1390 H   0  0  0  0  0  0  0  0  0  0  0  0
    3.0990   -2.8020   -0.9090 H   0  0  0  0  0  0  0  0  0  0  0  0
    3.0140   -1.8160    1.4470 H   0  0  0  0  0  0  0  0  0  0  0  0
    4.6390   -1.1890    1.0840 H   0  0  0  0  0  0  0  0  0  0  0  0
    3.3680   -0.0850    1.6630 H   0  0  0  0  0  0  0  0  0  0  0  0
    4.9500    0.4280   -0.7400 H   0  0  0  0  0  0  0  0  0  0  0  0
    3.6980    0.6320   -1.9860 H   0  0  0  0  0  0  0  0  0  0  0  0
    3.5330    1.7180    0.8700 H   0  0  0  0  0  0  0  0  0  0  0  0
    3.9150    2.6630   -0.5780 H   0  0  0  0  0  0  0  0  0  0  0  0
   -4.0960   -0.8350    0.1410 H   0  0  0  0  0  0  0  0  0  0  0  0
   -3.6860    0.6360   -2.5020 H   0  0  0  0  0  0  0  0  0  0  0  0
   -4.4930   -0.9360   -2.2870 H   0  0  0  0  0  0  0  0  0  0  0  0
   -5.2190    0.5380   -1.6020 H   0  0  0  0  0  0  0  0  0  0  0  0
   -4.0150    1.5590    0.7280 H   0  0  0  0  0  0  0  0  0  0  0  0
   -1.5090    1.4150    1.6300 H   0  0  0  0  0  0  0  0  0  0  0  0
   -3.2820    0.1830    2.7280 H   0  0  0  0  0  0  0  0  0  0  0  0
   -2.5840    1.8020   -1.8050 H   0  0  0  0  0  0  0  0  0  0  0  0
   -2.9340    3.0960   -0.6520 H   0  0  0  0  0  0  0  0  0  0  0  0
   -0.5290    2.9050   -1.1540 H   0  0  0  0  0  0  0  0  0  0  0  0
   -0.8490    2.5980    0.5630 H   0  0  0  0  0  0  0  0  0  0  0  0
   -0.3020    0.5620   -1.6540 H   0  0  0  0  0  0  0  0  0  0  0  0
    1.7320    2.1110   -1.5640 H   0  0  0  0  0  0  0  0  0  0  0  0
    1.9090    3.9630   -0.0710 H   0  0  0  0  0  0  0  0  0  0  0  0
 16 17  1  0  0  0  0
 16 18  1  0  0  0  0
  2 16  1  0  0  0  0
 19 20  1  0  0  0  0
 18 19  1  0  0  0  0
 18 21  1  0  0  0  0
  3 19  1  0  0  0  0
 21 22  1  0  0  0  0
  1  2  2  0  0  0  0
  2  3  1  0  0  0  0
  4  5  1  0  0  0  0
  3  4  1  0  0  0  0
  3 23  1  0  0  0  0
 22 23  1  0  0  0  0
  4  6  1  0  0  0  0
  4  8  1  0  0  0  0
  6  7  1  0  0  0  0
 23 24  1  0  0  0  0
  8  9  1  0  0  0  0
  7 24  1  0  0  0  0
  8 10  1  0  0  0  0
 10 24  1  0  0  0  0
 24 25  1  0  0  0  0
 10 11  1  0  0  0  0
 25 26  1  0  0  0  0
 15 25  1  0  0  0  0
 11 13  1  0  0  0  0
 11 12  1  0  0  0  0
 11 14  1  0  0  0  0
 14 15  1  0  0  0  0
  5 27  1  0  0  0  0
  7 28  1  0  0  0  0
  7 29  1  0  0  0  0
  8 30  1  0  0  0  0
  9 31  1  0  0  0  0
 10 32  1  0  0  0  0
 12 33  1  0  0  0  0
 12 34  1  0  0  0  0
 12 35  1  0  0  0  0
 13 36  1  0  0  0  0
 13 37  1  0  0  0  0
 13 38  1  0  0  0  0
 14 39  1  0  0  0  0
 14 40  1  0  0  0  0
 15 41  1  0  0  0  0
 15 42  1  0  0  0  0
 16 43  1  0  0  0  0
 17 44  1  0  0  0  0
 17 45  1  0  0  0  0
 17 46  1  0  0  0  0
 18 47  1  0  0  0  0
 19 48  1  0  0  0  0
 20 49  1  0  0  0  0
 21 50  1  0  0  0  0
 21 51  1  0  0  0  0
 22 52  1  0  0  0  0
 22 53  1  0  0  0  0
 23 54  1  0  0  0  0
 25 55  1  0  0  0  0
 26 56  1  0  0  0  0
M  END
> <OPENEYE_ISO_SMILES>
C[C@@H]1[C@@H]2CC[C@H]3[C@@]45CO[C@@]([C@]3([C@@H]2O)C1=O)([C@H]([C@@H]4C(CC[C@@H]5O)(C)C)O)O

> <OPENEYE_INCHI>
InChI=1S/C20H30O6/c1-9-10-4-5-11-18-8-26-20(25,19(11,14(9)22)15(10)23)16(24)13(18)17(2,3)7-6-12(18)21/h9-13,15-16,21,23-25H,4-8H2,1-3H3/t9-,10+,11+,12+,13-,15-,16+,18-,19+,20-/m1/s1

> <OPENEYE_INCHIKEY>
RWELMBQGCLVKOE-ZJOCIWLNSA-N

> <FORMULA>
C20H30O6

$$$$
