W0J
  -OEChem-02242320043D

 30 31  0     1  0  0  0  0  0999 V2000
   -0.0220   -0.5140    0.3470 N   0  0  1  0  0  0  0  0  0  0  0  0
   -1.5960    1.0860   -0.3630 N   0  0  0  0  0  0  0  0  0  0  0  0
    0.2020   -1.8090   -0.3080 C   0  0  0  0  0  0  0  0  0  0  0  0
    0.9190    0.5000   -0.1450 C   0  0  0  0  0  0  0  0  0  0  0  0
   -1.3370   -0.0940    0.1830 C   0  0  0  0  0  0  0  0  0  0  0  0
   -2.3900   -0.9110    0.5910 C   0  0  0  0  0  0  0  0  0  0  0  0
   -3.6830   -0.4470    0.4050 C   0  0  0  0  0  0  0  0  0  0  0  0
    3.4700    2.1690    0.6370 C   0  0  0  0  0  0  0  0  0  0  0  0
    3.2940    1.0740   -0.3270 N   0  0  0  0  0  0  0  0  0  0  0  0
    2.3510    0.0700    0.1830 C   0  0  2  0  0  0  0  0  0  0  0  0
    1.6120   -2.3080    0.0150 C   0  0  0  0  0  0  0  0  0  0  0  0
    2.6370   -1.2820   -0.4770 C   0  0  0  0  0  0  0  0  0  0  0  0
   -2.7960    1.5100   -0.5320 N   0  0  0  0  0  0  0  0  0  0  0  0
   -3.8490    0.8030   -0.1760 C   0  0  0  0  0  0  0  0  0  0  0  0
   -0.5300   -2.5310    0.0540 H   0  0  0  0  0  0  0  0  0  0  0  0
    0.0960   -1.6940   -1.3870 H   0  0  0  0  0  0  0  0  0  0  0  0
    0.8100    0.6040   -1.2240 H   0  0  0  0  0  0  0  0  0  0  0  0
    0.7080    1.4550    0.3360 H   0  0  0  0  0  0  0  0  0  0  0  0
   -2.2050   -1.8770    1.0380 H   0  0  0  0  0  0  0  0  0  0  0  0
   -4.5350   -1.0390    0.7030 H   0  0  0  0  0  0  0  0  0  0  0  0
    2.5090    2.6510    0.8170 H   0  0  0  0  0  0  0  0  0  0  0  0
    3.8580    1.7690    1.5740 H   0  0  0  0  0  0  0  0  0  0  0  0
    4.1730    2.8980    0.2340 H   0  0  0  0  0  0  0  0  0  0  0  0
    4.1800    0.6520   -0.5600 H   0  0  0  0  0  0  0  0  0  0  0  0
    2.4660   -0.0210    1.2640 H   0  0  0  0  0  0  0  0  0  0  0  0
    1.7150   -2.4370    1.0920 H   0  0  0  0  0  0  0  0  0  0  0  0
    1.7840   -3.2620   -0.4840 H   0  0  0  0  0  0  0  0  0  0  0  0
    2.5610   -1.1810   -1.5600 H   0  0  0  0  0  0  0  0  0  0  0  0
    3.6410   -1.6130   -0.2110 H   0  0  0  0  0  0  0  0  0  0  0  0
   -4.8430    1.1960   -0.3360 H   0  0  0  0  0  0  0  0  0  0  0  0
  7 14  2  0  0  0  0
  6  7  1  0  0  0  0
 10 12  1  0  0  0  0
 11 12  1  0  0  0  0
 13 14  1  0  0  0  0
  5  6  2  0  0  0  0
  4 10  1  0  0  0  0
  9 10  1  0  0  0  0
  2 13  2  0  0  0  0
  2  5  1  0  0  0  0
  1  5  1  0  0  0  0
  1  4  1  0  0  0  0
  1  3  1  0  0  0  0
  8  9  1  0  0  0  0
  3 11  1  0  0  0  0
  3 15  1  0  0  0  0
  3 16  1  0  0  0  0
  4 17  1  0  0  0  0
  4 18  1  0  0  0  0
  6 19  1  0  0  0  0
  7 20  1  0  0  0  0
  8 21  1  0  0  0  0
  8 22  1  0  0  0  0
  8 23  1  0  0  0  0
  9 24  1  0  0  0  0
 10 25  1  0  0  0  0
 11 26  1  0  0  0  0
 11 27  1  0  0  0  0
 12 28  1  0  0  0  0
 12 29  1  0  0  0  0
 14 30  1  0  0  0  0
M  END
> <OPENEYE_ISO_SMILES>
CN[C@@H]1CCC[N@@](C1)c2cccnn2

> <OPENEYE_INCHI>
InChI=1S/C10H16N4/c1-11-9-4-3-7-14(8-9)10-5-2-6-12-13-10/h2,5-6,9,11H,3-4,7-8H2,1H3/t9-/m1/s1

> <OPENEYE_INCHIKEY>
QLSDWIHANVSIEK-SECBINFHSA-N

> <FORMULA>
C10H16N4

$$$$
