JG4
  -OEChem-02242320033D

 16 17  0     0  0  0  0  0  0999 V2000
    2.5500    1.1960    0.0010 C   0  0  0  0  0  0  0  0  0  0  0  0
    1.1820    1.3630   -0.0010 C   0  0  0  0  0  0  0  0  0  0  0  0
    0.4740    0.2120   -0.0000 C   0  0  0  0  0  0  0  0  0  0  0  0
    1.5790   -1.1560    0.0020 S   0  0  0  0  0  0  0  0  0  0  0  0
    2.9660   -0.0750   -0.0040 C   0  0  0  0  0  0  0  0  0  0  0  0
   -0.9950    0.1180   -0.0010 C   0  0  0  0  0  0  0  0  0  0  0  0
   -1.7230   -1.0380   -0.0010 N   0  0  0  0  0  0  0  0  0  0  0  0
   -3.0460   -0.6770   -0.0010 C   0  0  0  0  0  0  0  0  0  0  0  0
   -3.0890    0.6700   -0.0020 C   0  0  0  0  0  0  0  0  0  0  0  0
   -1.8330    1.1340    0.0040 N   0  0  0  0  0  0  0  0  0  0  0  0
    3.2350    2.0310    0.0010 H   0  0  0  0  0  0  0  0  0  0  0  0
    0.7130    2.3360   -0.0020 H   0  0  0  0  0  0  0  0  0  0  0  0
    4.0000   -0.3900   -0.0040 H   0  0  0  0  0  0  0  0  0  0  0  0
   -1.3710   -1.9420   -0.0000 H   0  0  0  0  0  0  0  0  0  0  0  0
   -3.8940   -1.3460   -0.0020 H   0  0  0  0  0  0  0  0  0  0  0  0
   -3.9850    1.2730   -0.0030 H   0  0  0  0  0  0  0  0  0  0  0  0
  9 10  1  0  0  0  0
  6 10  2  0  0  0  0
  4  5  1  0  0  0  0
  3  4  1  0  0  0  0
  8  9  2  0  0  0  0
  1  5  2  0  0  0  0
  3  6  1  0  0  0  0
  2  3  2  0  0  0  0
  6  7  1  0  0  0  0
  1  2  1  0  0  0  0
  7  8  1  0  0  0  0
  1 11  1  0  0  0  0
  2 12  1  0  0  0  0
  5 13  1  0  0  0  0
  7 14  1  0  0  0  0
  8 15  1  0  0  0  0
  9 16  1  0  0  0  0
M  END
> <OPENEYE_ISO_SMILES>
c1cc(sc1)c2[nH]ccn2

> <OPENEYE_INCHI>
InChI=1S/C7H6N2S/c1-2-6(10-5-1)7-8-3-4-9-7/h1-5H,(H,8,9)

> <OPENEYE_INCHIKEY>
UZLSJAUHCCPJMC-UHFFFAOYSA-N

> <FORMULA>
C7H6N2S

$$$$
