RWL
  -OEChem-02242320043D

 26 28  0     0  0  0  0  0  0999 V2000
   -1.4900   -0.4910   -0.4850 C   0  0  0  0  0  0  0  0  0  0  0  0
    2.7830    0.6340    0.2490 C   0  0  0  0  0  0  0  0  0  0  0  0
    2.8640   -1.7030   -0.5180 C   0  0  0  0  0  0  0  0  0  0  0  0
    1.7180   -1.0530   -0.7390 C   0  0  0  0  0  0  0  0  0  0  0  0
    0.5340   -1.6940   -1.4150 C   0  0  0  0  0  0  0  0  0  0  0  0
   -2.5220    1.5440   -0.8050 C   0  0  0  0  0  0  0  0  0  0  0  0
   -3.4780    0.1130    0.7400 C   0  0  0  0  0  0  0  0  0  0  0  0
   -2.4670   -0.8240    0.4670 C   0  0  0  0  0  0  0  0  0  0  0  0
   -1.1020   -2.5040    0.3290 C   0  0  0  0  0  0  0  0  0  0  0  0
   -2.5520    2.7650   -1.4580 N   0  0  0  0  0  0  0  0  0  0  0  0
   -3.4650    1.2700    0.0880 N   0  0  0  0  0  0  0  0  0  0  0  0
   -4.4660   -0.1630    1.6680 N   0  0  0  0  0  0  0  0  0  0  0  0
   -2.1720   -2.0660    0.9250 N   0  0  0  0  0  0  0  0  0  0  0  0
   -0.6460   -1.5710   -0.5550 N   0  0  0  0  0  0  0  0  0  0  0  0
    1.7070    0.1960   -0.3160 N   0  0  0  0  0  0  0  0  0  0  0  0
   -1.5520    0.6900   -1.0920 N   0  0  0  0  0  0  0  0  0  0  0  0
    3.9710   -0.5950    0.2880 S   0  0  0  0  0  0  0  0  0  0  0  0
    2.9940    2.2410    0.8730 Cl  0  0  0  0  0  0  0  0  0  0  0  0
    3.0740   -2.7270   -0.7870 H   0  0  0  0  0  0  0  0  0  0  0  0
    0.3450   -1.1960   -2.3660 H   0  0  0  0  0  0  0  0  0  0  0  0
    0.7440   -2.7490   -1.5940 H   0  0  0  0  0  0  0  0  0  0  0  0
   -0.6430   -3.4660    0.5070 H   0  0  0  0  0  0  0  0  0  0  0  0
   -3.2560    3.4030   -1.2600 H   0  0  0  0  0  0  0  0  0  0  0  0
   -1.8710    2.9820   -2.1130 H   0  0  0  0  0  0  0  0  0  0  0  0
   -5.1590    0.4910    1.8490 H   0  0  0  0  0  0  0  0  0  0  0  0
   -4.4660   -1.0110    2.1390 H   0  0  0  0  0  0  0  0  0  0  0  0
  2 18  1  0  0  0  0
  2 17  1  0  0  0  0
  2 15  2  0  0  0  0
  3 17  1  0  0  0  0
  4 15  1  0  0  0  0
  3  4  2  0  0  0  0
  4  5  1  0  0  0  0
  5 14  1  0  0  0  0
  9 14  1  0  0  0  0
  9 13  2  0  0  0  0
  1 14  1  0  0  0  0
  8 13  1  0  0  0  0
  1  8  2  0  0  0  0
  1 16  1  0  0  0  0
  7  8  1  0  0  0  0
  6 16  2  0  0  0  0
  7 12  1  0  0  0  0
  7 11  2  0  0  0  0
  6 11  1  0  0  0  0
  6 10  1  0  0  0  0
  3 19  1  0  0  0  0
  5 20  1  0  0  0  0
  5 21  1  0  0  0  0
  9 22  1  0  0  0  0
 10 23  1  0  0  0  0
 10 24  1  0  0  0  0
 12 25  1  0  0  0  0
 12 26  1  0  0  0  0
M  END
> <OPENEYE_ISO_SMILES>
c1c(nc(s1)Cl)Cn2cnc3c2nc(nc3N)N

> <OPENEYE_INCHI>
InChI=1S/C9H8ClN7S/c10-8-14-4(2-18-8)1-17-3-13-5-6(11)15-9(12)16-7(5)17/h2-3H,1H2,(H4,11,12,15,16)

> <OPENEYE_INCHIKEY>
QGSVLNUQBAPFJD-UHFFFAOYSA-N

> <FORMULA>
C9H8ClN7S

$$$$
