QO3
  -OEChem-02242320033D

 48 51  0     1  0  0  0  0  0999 V2000
    3.6320    0.0130   -0.3380 C   0  0  0  0  0  0  0  0  0  0  0  0
    1.4040   -0.5520   -0.5350 C   0  0  0  0  0  0  0  0  0  0  0  0
    1.1060    0.0810    0.6730 C   0  0  0  0  0  0  0  0  0  0  0  0
   -0.2760    0.0960    1.1890 C   0  0  0  0  0  0  0  0  0  0  0  0
   -2.6350   -0.4890    1.0050 C   0  0  1  0  0  0  0  0  0  0  0  0
   -3.3560    0.7570    0.5380 C   0  0  0  0  0  0  0  0  0  0  0  0
   -3.2850    2.0610    1.0000 C   0  0  0  0  0  0  0  0  0  0  0  0
    6.0190    0.6130   -0.1480 C   0  0  0  0  0  0  0  0  0  0  0  0
   -2.5270   -2.7990    0.0260 C   0  0  0  0  0  0  0  0  0  0  0  0
   -3.4410   -1.6670    0.4160 C   0  0  2  0  0  0  0  0  0  0  0  0
   -4.0920   -1.0320   -0.8310 C   0  0  0  0  0  0  0  0  0  0  0  0
   -4.1930    0.4450   -0.5160 C   0  0  0  0  0  0  0  0  0  0  0  0
   -4.9590    1.4420   -1.1080 C   0  0  0  0  0  0  0  0  0  0  0  0
   -4.8850    2.7450   -0.6420 C   0  0  0  0  0  0  0  0  0  0  0  0
   -4.0470    3.0520    0.4120 C   0  0  0  0  0  0  0  0  0  0  0  0
    7.3140    0.4300   -0.9410 C   0  0  0  0  0  0  0  0  0  0  0  0
    8.4290   -0.3920   -0.2920 C   0  0  0  0  0  0  0  0  0  0  0  0
    8.5700    1.1260   -0.4140 C   0  0  0  0  0  0  0  0  0  0  0  0
    3.4070    0.6630    0.8740 C   0  0  0  0  0  0  0  0  0  0  0  0
    2.1400    0.7020    1.3900 C   0  0  0  0  0  0  0  0  0  0  0  0
   -1.2620   -0.5040    0.4920 N   0  0  0  0  0  0  0  0  0  0  0  0
    2.6370   -0.5660   -0.9960 N   0  0  0  0  0  0  0  0  0  0  0  0
    4.9120   -0.0230   -0.8660 N   0  0  0  0  0  0  0  0  0  0  0  0
   -2.1280   -2.8890   -1.1110 O   0  0  0  0  0  0  0  0  0  0  0  0
   -5.7830    1.1380   -2.1450 O   0  0  0  0  0  0  0  0  0  0  0  0
   -0.5260    0.6490    2.2420 O   0  0  0  0  0  0  0  0  0  0  0  0
   -2.1570   -3.7090    0.9410 O   0  0  0  0  0  0  0  0  0  0  0  0
    0.6170   -1.0330   -1.0960 H   0  0  0  0  0  0  0  0  0  0  0  0
   -2.6320   -0.5390    2.0930 H   0  0  0  0  0  0  0  0  0  0  0  0
   -2.6300    2.3040    1.8240 H   0  0  0  0  0  0  0  0  0  0  0  0
    6.1260    0.1540    0.8350 H   0  0  0  0  0  0  0  0  0  0  0  0
    5.8120    1.6770   -0.0310 H   0  0  0  0  0  0  0  0  0  0  0  0
   -4.1990   -2.0080    1.1210 H   0  0  0  0  0  0  0  0  0  0  0  0
   -3.4630   -1.1900   -1.7070 H   0  0  0  0  0  0  0  0  0  0  0  0
   -5.0830   -1.4540   -0.9960 H   0  0  0  0  0  0  0  0  0  0  0  0
   -5.4810    3.5190   -1.1030 H   0  0  0  0  0  0  0  0  0  0  0  0
   -3.9880    4.0670    0.7770 H   0  0  0  0  0  0  0  0  0  0  0  0
    7.1970    0.3540   -2.0220 H   0  0  0  0  0  0  0  0  0  0  0  0
    8.2400   -0.8020    0.7010 H   0  0  0  0  0  0  0  0  0  0  0  0
    9.0460   -1.0100   -0.9450 H   0  0  0  0  0  0  0  0  0  0  0  0
    9.2790    1.5080   -1.1480 H   0  0  0  0  0  0  0  0  0  0  0  0
    8.4740    1.7160    0.4980 H   0  0  0  0  0  0  0  0  0  0  0  0
    4.2250    1.1310    1.4020 H   0  0  0  0  0  0  0  0  0  0  0  0
    1.9400    1.1990    2.3280 H   0  0  0  0  0  0  0  0  0  0  0  0
   -1.0630   -0.9460   -0.3480 H   0  0  0  0  0  0  0  0  0  0  0  0
    5.0750   -0.4700   -1.7110 H   0  0  0  0  0  0  0  0  0  0  0  0
   -6.6770    0.8840   -1.8770 H   0  0  0  0  0  0  0  0  0  0  0  0
   -1.5690   -4.4170    0.6430 H   0  0  0  0  0  0  0  0  0  0  0  0
  9 24  2  0  0  0  0
 10 11  1  0  0  0  0
 11 12  1  0  0  0  0
 12 13  2  0  0  0  0
 13 25  1  0  0  0  0
 13 14  1  0  0  0  0
 14 15  2  0  0  0  0
  7 15  1  0  0  0  0
  6  7  2  0  0  0  0
  5  6  1  0  0  0  0
  5 21  1  0  0  0  0
  4 21  1  0  0  0  0
  2  3  2  0  0  0  0
  2 22  1  0  0  0  0
  1 22  2  0  0  0  0
  8 23  1  0  0  0  0
  8 16  1  0  0  0  0
 16 17  1  0  0  0  0
 17 18  1  0  0  0  0
  1 23  1  0  0  0  0
  1 19  1  0  0  0  0
 19 20  2  0  0  0  0
  3  4  1  0  0  0  0
  4 26  2  0  0  0  0
  9 10  1  0  0  0  0
  9 27  1  0  0  0  0
  5 10  1  0  0  0  0
  6 12  1  0  0  0  0
  3 20  1  0  0  0  0
 16 18  1  0  0  0  0
  2 28  1  0  0  0  0
  5 29  1  0  0  0  0
  7 30  1  0  0  0  0
  8 31  1  0  0  0  0
  8 32  1  0  0  0  0
 10 33  1  0  0  0  0
 11 34  1  0  0  0  0
 11 35  1  0  0  0  0
 14 36  1  0  0  0  0
 15 37  1  0  0  0  0
 16 38  1  0  0  0  0
 17 39  1  0  0  0  0
 17 40  1  0  0  0  0
 18 41  1  0  0  0  0
 18 42  1  0  0  0  0
 19 43  1  0  0  0  0
 20 44  1  0  0  0  0
 21 45  1  0  0  0  0
 23 46  1  0  0  0  0
 25 47  1  0  0  0  0
 27 48  1  0  0  0  0
M  END
> <OPENEYE_ISO_SMILES>
c1cc2c(c(c1)O)C[C@H]([C@H]2NC(=O)c3ccc(nc3)NCC4CC4)C(=O)O

> <OPENEYE_INCHI>
InChI=1S/C20H21N3O4/c24-16-3-1-2-13-14(16)8-15(20(26)27)18(13)23-19(25)12-6-7-17(22-10-12)21-9-11-4-5-11/h1-3,6-7,10-11,15,18,24H,4-5,8-9H2,(H,21,22)(H,23,25)(H,26,27)/t15-,18+/m1/s1

> <OPENEYE_INCHIKEY>
NMUBYVYZKDCGHF-QAPCUYQASA-N

> <FORMULA>
C20H21N3O4

$$$$
