QOF
  -OEChem-02242320033D

 48 51  0     1  0  0  0  0  0999 V2000
    2.7040   -2.3690   -0.1970 C   0  0  0  0  0  0  0  0  0  0  0  0
    3.2690   -1.5770    0.9530 C   0  0  1  0  0  0  0  0  0  0  0  0
    4.6950   -1.0820    0.6300 C   0  0  0  0  0  0  0  0  0  0  0  0
    4.5100    0.2900    0.0180 C   0  0  0  0  0  0  0  0  0  0  0  0
    5.3810    1.0640   -0.7380 C   0  0  0  0  0  0  0  0  0  0  0  0
    4.9840    2.3110   -1.1970 C   0  0  0  0  0  0  0  0  0  0  0  0
    3.7200    2.7820   -0.9010 C   0  0  0  0  0  0  0  0  0  0  0  0
    2.8540    2.0110   -0.1490 C   0  0  0  0  0  0  0  0  0  0  0  0
    3.2460    0.7660    0.3120 C   0  0  0  0  0  0  0  0  0  0  0  0
    2.4960   -0.2550    1.1410 C   0  0  1  0  0  0  0  0  0  0  0  0
    0.1350    0.3460    1.1920 C   0  0  0  0  0  0  0  0  0  0  0  0
   -1.2490    0.2040    0.7000 C   0  0  0  0  0  0  0  0  0  0  0  0
   -1.5470   -0.6990   -0.3210 C   0  0  0  0  0  0  0  0  0  0  0  0
   -3.7770   -0.1110   -0.2570 C   0  0  0  0  0  0  0  0  0  0  0  0
   -6.1670    0.5060   -0.2040 C   0  0  0  0  0  0  0  0  0  0  0  0
   -7.4650    0.1290   -0.9200 C   0  0  0  0  0  0  0  0  0  0  0  0
   -8.5720   -0.5170   -0.0850 C   0  0  0  0  0  0  0  0  0  0  0  0
   -8.7230    0.9260   -0.5700 C   0  0  0  0  0  0  0  0  0  0  0  0
   -3.5530    0.8070    0.7680 C   0  0  0  0  0  0  0  0  0  0  0  0
   -2.2840    0.9710    1.2550 C   0  0  0  0  0  0  0  0  0  0  0  0
    1.1220   -0.3960    0.6520 N   0  0  0  0  0  0  0  0  0  0  0  0
   -2.7820   -0.8270   -0.7620 N   0  0  0  0  0  0  0  0  0  0  0  0
   -5.0590   -0.2800   -0.7530 N   0  0  0  0  0  0  0  0  0  0  0  0
    3.0720   -2.1430   -1.3260 O   0  0  0  0  0  0  0  0  0  0  0  0
    6.6240    0.5990   -1.0280 O   0  0  0  0  0  0  0  0  0  0  0  0
    0.3840    1.1320    2.0860 O   0  0  0  0  0  0  0  0  0  0  0  0
    1.7950   -3.3300    0.0330 O   0  0  0  0  0  0  0  0  0  0  0  0
    3.2590   -2.1660    1.8700 H   0  0  0  0  0  0  0  0  0  0  0  0
    5.2880   -1.0130    1.5420 H   0  0  0  0  0  0  0  0  0  0  0  0
    5.1760   -1.7530   -0.0820 H   0  0  0  0  0  0  0  0  0  0  0  0
    5.6620    2.9120   -1.7840 H   0  0  0  0  0  0  0  0  0  0  0  0
    3.4080    3.7530   -1.2570 H   0  0  0  0  0  0  0  0  0  0  0  0
    1.8660    2.3820    0.0810 H   0  0  0  0  0  0  0  0  0  0  0  0
    2.4960    0.0380    2.1910 H   0  0  0  0  0  0  0  0  0  0  0  0
   -0.7600   -1.2980   -0.7540 H   0  0  0  0  0  0  0  0  0  0  0  0
   -5.9660    1.5670   -0.3490 H   0  0  0  0  0  0  0  0  0  0  0  0
   -6.2670    0.2980    0.8620 H   0  0  0  0  0  0  0  0  0  0  0  0
   -7.3520   -0.2060   -1.9520 H   0  0  0  0  0  0  0  0  0  0  0  0
   -9.1870   -1.2770   -0.5660 H   0  0  0  0  0  0  0  0  0  0  0  0
   -8.3750   -0.6730    0.9760 H   0  0  0  0  0  0  0  0  0  0  0  0
   -8.6250    1.7200    0.1710 H   0  0  0  0  0  0  0  0  0  0  0  0
   -9.4380    1.1160   -1.3710 H   0  0  0  0  0  0  0  0  0  0  0  0
   -4.3710    1.3850    1.1710 H   0  0  0  0  0  0  0  0  0  0  0  0
   -2.0850    1.6750    2.0500 H   0  0  0  0  0  0  0  0  0  0  0  0
    0.9230   -1.0230   -0.0610 H   0  0  0  0  0  0  0  0  0  0  0  0
   -5.2240   -0.9190   -1.4640 H   0  0  0  0  0  0  0  0  0  0  0  0
    6.6730    0.0930   -1.8510 H   0  0  0  0  0  0  0  0  0  0  0  0
    1.4640   -3.8150   -0.7360 H   0  0  0  0  0  0  0  0  0  0  0  0
  1 24  2  0  0  0  0
  2  3  1  0  0  0  0
  3  4  1  0  0  0  0
  4  5  2  0  0  0  0
  5 25  1  0  0  0  0
  5  6  1  0  0  0  0
  6  7  2  0  0  0  0
  7  8  1  0  0  0  0
  8  9  2  0  0  0  0
  9 10  1  0  0  0  0
 10 21  1  0  0  0  0
 11 21  1  0  0  0  0
 12 13  2  0  0  0  0
 13 22  1  0  0  0  0
 14 22  2  0  0  0  0
 15 23  1  0  0  0  0
 15 16  1  0  0  0  0
 16 17  1  0  0  0  0
 17 18  1  0  0  0  0
 14 23  1  0  0  0  0
 14 19  1  0  0  0  0
 19 20  2  0  0  0  0
 11 12  1  0  0  0  0
 11 26  2  0  0  0  0
  1  2  1  0  0  0  0
  1 27  1  0  0  0  0
  2 10  1  0  0  0  0
  4  9  1  0  0  0  0
 12 20  1  0  0  0  0
 16 18  1  0  0  0  0
  2 28  1  0  0  0  0
  3 29  1  0  0  0  0
  3 30  1  0  0  0  0
  6 31  1  0  0  0  0
  7 32  1  0  0  0  0
  8 33  1  0  0  0  0
 10 34  1  0  0  0  0
 13 35  1  0  0  0  0
 15 36  1  0  0  0  0
 15 37  1  0  0  0  0
 16 38  1  0  0  0  0
 17 39  1  0  0  0  0
 17 40  1  0  0  0  0
 18 41  1  0  0  0  0
 18 42  1  0  0  0  0
 19 43  1  0  0  0  0
 20 44  1  0  0  0  0
 21 45  1  0  0  0  0
 23 46  1  0  0  0  0
 25 47  1  0  0  0  0
 27 48  1  0  0  0  0
M  END
> <OPENEYE_ISO_SMILES>
c1cc2c(c(c1)O)C[C@@H]([C@@H]2NC(=O)c3ccc(nc3)NCC4CC4)C(=O)O

> <OPENEYE_INCHI>
InChI=1S/C20H21N3O4/c24-16-3-1-2-13-14(16)8-15(20(26)27)18(13)23-19(25)12-6-7-17(22-10-12)21-9-11-4-5-11/h1-3,6-7,10-11,15,18,24H,4-5,8-9H2,(H,21,22)(H,23,25)(H,26,27)/t15-,18+/m0/s1

> <OPENEYE_INCHIKEY>
NMUBYVYZKDCGHF-MAUKXSAKSA-N

> <FORMULA>
C20H21N3O4

$$$$
