@<TRIPOS>MOLECULE
/home/pku/3cl/gett_pdb/5RH4/5RH4_mol2/ligand/5RH4_UHG.pdb
 19 21 0 0 0
SMALL
GASTEIGER

@<TRIPOS>ATOM
      1  C4        21.2280  -22.0830   17.4170 C.2   1001  UHG1001    -0.0250
      2  C5        21.8890  -23.1620   17.9760 C.3   1001  UHG1001     0.0536
      3  C6        22.3940  -24.1530   17.1420 C.2   1001  UHG1001     0.0013
      4  C7        22.1890  -24.0420   15.7520 C.2   1001  UHG1001     0.0774
      5  C8        21.5370  -22.9580   15.1890 C.2   1001  UHG1001     0.0147
      6  C10       24.1450  -27.0580   15.9010 C.ar  1001  UHG1001     0.0200
      7  C13       23.7610  -25.9590   18.4520 C.ar  1001  UHG1001     0.0126
      8 CL         25.3060  -27.8200   19.6340 Cl    1001  UHG1001    -0.0822
      9  C12       24.5340  -27.0880   18.2600 C.ar  1001  UHG1001     0.0578
     10  C11       24.7290  -27.6440   17.0100 C.ar  1001  UHG1001     0.0129
     11  C14       23.1740  -25.3510   17.3460 C.ar  1001  UHG1001     0.0163
     12  C9        23.3810  -25.9140   16.0720 C.ar  1001  UHG1001     0.0810
     13  N         22.7750  -25.1190   15.1220 N.2   1001  UHG1001    -0.2457
     14  C3        21.0680  -21.9580   16.0360 C.2   1001  UHG1001    -0.0143
     15  C1        20.4330  -20.7190   15.4260 C.3   1001  UHG1001     0.1254
     16  C         19.6890  -19.8990   16.4610 C.3   1001  UHG1001     0.0166
     17  C2        21.5150  -19.9600   14.6850 C.2   1001  UHG1001     0.3683
     18  O         21.5510  -19.9740   13.4780 O.co2 1001  UHG1001    -0.2453
     19  O1        22.4050  -19.3510   15.4370 O.co2 1001  UHG1001    -0.2453
@<TRIPOS>BOND
     1    18    17   ar
     2    17    15    1
     3    17    19   ar
     4    13     4    1
     5    13    12    2
     6     5     4    2
     7     5    14    1
     8    15    14    1
     9    15    16    1
    10     4     3    1
    11     6    12   ar
    12     6    10   ar
    13    14     1    2
    14    12    11   ar
    15    10     9   ar
    16     3    11    2
    17     3     2    1
    18    11     7   ar
    19     1     2    1
    20     9     7   ar
    21     9     8    1
