W5P
  -OEChem-02242320043D

 29 31  0     1  0  0  0  0  0999 V2000
   -2.1080    2.2230   -0.0800 C   0  0  0  0  0  0  0  0  0  0  0  0
   -1.3950   -1.8160    0.1630 C   0  0  0  0  0  0  0  0  0  0  0  0
    2.7710   -1.0340   -0.5810 C   0  0  2  0  0  0  0  0  0  0  0  0
    3.6800    0.1990   -0.5660 C   0  0  0  0  0  0  0  0  0  0  0  0
    3.1950    1.1680    0.5150 C   0  0  0  0  0  0  0  0  0  0  0  0
    1.7380    1.5460    0.2380 C   0  0  0  0  0  0  0  0  0  0  0  0
    1.3270   -0.5930   -0.8260 C   0  0  0  0  0  0  0  0  0  0  0  0
   -0.4320    0.6500    0.1170 C   0  0  0  0  0  0  0  0  0  0  0  0
   -2.7600    0.0170   -0.0290 C   0  0  0  0  0  0  0  0  0  0  0  0
   -2.6720   -2.2220    0.0740 C   0  0  0  0  0  0  0  0  0  0  0  0
   -1.4090   -0.3560    0.0930 C   0  0  0  0  0  0  0  0  0  0  0  0
    2.8560   -1.6910    0.6510 F   0  0  0  0  0  0  0  0  0  0  0  0
    0.9090    0.3330    0.2350 N   0  0  2  0  0  0  0  0  0  0  0  0
   -0.8280    1.9160    0.0280 N   0  0  0  0  0  0  0  0  0  0  0  0
   -3.0580    1.3130   -0.1070 N   0  0  0  0  0  0  0  0  0  0  0  0
   -3.4990   -1.1340   -0.0310 N   0  0  0  0  0  0  0  0  0  0  0  0
   -2.3870    3.2650   -0.1450 H   0  0  0  0  0  0  0  0  0  0  0  0
   -0.5230   -2.4480    0.2570 H   0  0  0  0  0  0  0  0  0  0  0  0
    3.0860   -1.7090   -1.3760 H   0  0  0  0  0  0  0  0  0  0  0  0
    4.7040   -0.1070   -0.3490 H   0  0  0  0  0  0  0  0  0  0  0  0
    3.6440    0.6890   -1.5390 H   0  0  0  0  0  0  0  0  0  0  0  0
    3.2680    0.6910    1.4920 H   0  0  0  0  0  0  0  0  0  0  0  0
    3.8120    2.0670    0.5010 H   0  0  0  0  0  0  0  0  0  0  0  0
    1.3850    2.2250    1.0130 H   0  0  0  0  0  0  0  0  0  0  0  0
    1.6680    2.0360   -0.7340 H   0  0  0  0  0  0  0  0  0  0  0  0
    1.2580   -0.0930   -1.7920 H   0  0  0  0  0  0  0  0  0  0  0  0
    0.6750   -1.4660   -0.8220 H   0  0  0  0  0  0  0  0  0  0  0  0
   -2.9990   -3.2510    0.0950 H   0  0  0  0  0  0  0  0  0  0  0  0
   -4.4660   -1.1750   -0.0970 H   0  0  0  0  0  0  0  0  0  0  0  0
  3  4  1  0  0  0  0
  4  5  1  0  0  0  0
  3 12  1  0  0  0  0
  3  7  1  0  0  0  0
  7 13  1  0  0  0  0
  5  6  1  0  0  0  0
  6 13  1  0  0  0  0
  8 13  1  0  0  0  0
  8 11  2  0  0  0  0
  8 14  1  0  0  0  0
  2 11  1  0  0  0  0
  2 10  2  0  0  0  0
  9 11  1  0  0  0  0
  1 14  2  0  0  0  0
 10 16  1  0  0  0  0
  9 16  1  0  0  0  0
  9 15  2  0  0  0  0
  1 15  1  0  0  0  0
  1 17  1  0  0  0  0
  2 18  1  0  0  0  0
  3 19  1  0  0  0  0
  4 20  1  0  0  0  0
  4 21  1  0  0  0  0
  5 22  1  0  0  0  0
  5 23  1  0  0  0  0
  6 24  1  0  0  0  0
  6 25  1  0  0  0  0
  7 26  1  0  0  0  0
  7 27  1  0  0  0  0
 10 28  1  0  0  0  0
 16 29  1  0  0  0  0
M  END
> <OPENEYE_ISO_SMILES>
c1c[nH]c2c1c(ncn2)[N@@]3CCC[C@H](C3)F

> <OPENEYE_INCHI>
InChI=1S/C11H13FN4/c12-8-2-1-5-16(6-8)11-9-3-4-13-10(9)14-7-15-11/h3-4,7-8H,1-2,5-6H2,(H,13,14,15)/t8-/m1/s1

> <OPENEYE_INCHIKEY>
QSYGVQIPKLCKAM-MRVPVSSYSA-N

> <FORMULA>
C11H13FN4

$$$$
