@<TRIPOS>MOLECULE
/home/pku/3cl/gett_pdb/5RH1/5RH1_mol2/ligand/5RH1_UGV.pdb
 16 17 0 0 0
SMALL
GASTEIGER

@<TRIPOS>ATOM
      1  N1         6.6430    0.8570   17.3950 N.ar  1001  UGV1001    -0.2410
      2  C4         8.8560   -1.3520   22.3970 C.3   1001  UGV1001     0.1200
      3  C5         8.4520   -0.3890   21.3020 C.2   1001  UGV1001     0.2506
      4  C6         6.6510    0.0390   19.6580 C.ar  1001  UGV1001     0.0925
      5  C7         5.4030    0.6160   19.8730 C.ar  1001  UGV1001     0.0198
      6  C8         4.7900    1.3130   18.8450 C.ar  1001  UGV1001     0.0220
      7  C10        7.2300    0.1970   18.4000 C.ar  1001  UGV1001     0.1154
      8  O          9.1320    0.6020   21.0370 O.2   1001  UGV1001    -0.2726
      9  C3        10.0400   -0.7030   23.0490 C.ar  1001  UGV1001     0.0173
     10  C2        10.0460    0.0350   24.2130 C.ar  1001  UGV1001     0.0041
     11  C1        11.3060    0.5560   24.5400 C.ar  1001  UGV1001     0.0182
     12  S         11.6230   -0.7710   22.3590 S.2   1001  UGV1001    -0.0794
     13  C         12.2410    0.1990   23.6320 C.ar  1001  UGV1001     0.0867
     14 CL         13.9070    0.6050   23.6580 Cl    1001  UGV1001    -0.0752
     15  N          7.2990   -0.6990   20.6710 N.am  1001  UGV1001    -0.1773
     16  C9         5.4420    1.3990   17.6290 C.ar  1001  UGV1001     0.0990
@<TRIPOS>BOND
     1     1    16   ar
     2     1     7   ar
     3    16     6   ar
     4     7     4   ar
     5     6     5   ar
     6     4     5   ar
     7     4    15    1
     8    15     3   am
     9     8     3    2
    10     3     2    1
    11    12     9   ar
    12    12    13   ar
    13     2     9    1
    14     9    10   ar
    15    13    14    1
    16    13    11   ar
    17    10    11   ar
