LFO
  -OEChem-02242320033D

 26 27  0     0  0  0  0  0  0999 V2000
    3.1190    0.4780   -0.0050 N   0  0  0  0  0  0  0  0  0  0  0  0
    0.3640    1.5610   -0.0020 C   0  0  0  0  0  0  0  0  0  0  0  0
   -1.6910    2.9830    0.0030 C   0  0  0  0  0  0  0  0  0  0  0  0
   -1.5950    0.4630   -0.0010 C   0  0  0  0  0  0  0  0  0  0  0  0
   -2.9260    0.0600   -0.0000 C   0  0  0  0  0  0  0  0  0  0  0  0
   -3.2380   -1.2830   -0.0020 C   0  0  0  0  0  0  0  0  0  0  0  0
   -0.9100   -1.8610    0.0080 C   0  0  0  0  0  0  0  0  0  0  0  0
    4.4690   -0.0910    0.0010 C   0  0  0  0  0  0  0  0  0  0  0  0
    2.0450   -0.3350   -0.0010 C   0  0  0  0  0  0  0  0  0  0  0  0
    2.1950   -1.5420    0.0020 O   0  0  0  0  0  0  0  0  0  0  0  0
    0.6910    0.2370   -0.0000 C   0  0  0  0  0  0  0  0  0  0  0  0
   -0.9830    1.7000   -0.0000 N   0  0  0  0  0  0  0  0  0  0  0  0
   -2.2350   -2.2410   -0.0050 C   0  0  0  0  0  0  0  0  0  0  0  0
   -0.5810   -0.5080    0.0040 C   0  0  0  0  0  0  0  0  0  0  0  0
    2.9990    1.4410   -0.0070 H   0  0  0  0  0  0  0  0  0  0  0  0
    1.0730    2.3750   -0.0010 H   0  0  0  0  0  0  0  0  0  0  0  0
   -1.8680    3.3020   -1.0240 H   0  0  0  0  0  0  0  0  0  0  0  0
   -2.6450    2.8700    0.5170 H   0  0  0  0  0  0  0  0  0  0  0  0
   -1.0870    3.7300    0.5170 H   0  0  0  0  0  0  0  0  0  0  0  0
   -3.7150    0.7980    0.0030 H   0  0  0  0  0  0  0  0  0  0  0  0
   -4.2730   -1.5920   -0.0010 H   0  0  0  0  0  0  0  0  0  0  0  0
   -0.1310   -2.6090    0.0050 H   0  0  0  0  0  0  0  0  0  0  0  0
    4.6030   -0.7010    0.8950 H   0  0  0  0  0  0  0  0  0  0  0  0
    4.6050   -0.7120   -0.8850 H   0  0  0  0  0  0  0  0  0  0  0  0
    5.2040    0.7140   -0.0040 H   0  0  0  0  0  0  0  0  0  0  0  0
   -2.4930   -3.2900   -0.0160 H   0  0  0  0  0  0  0  0  0  0  0  0
  1  8  1  0  0  0  0
  1  9  1  0  0  0  0
  9 10  2  0  0  0  0
  9 11  1  0  0  0  0
  2 11  2  0  0  0  0
 11 14  1  0  0  0  0
  2 12  1  0  0  0  0
  7 14  2  0  0  0  0
  4 14  1  0  0  0  0
  7 13  1  0  0  0  0
  4 12  1  0  0  0  0
  3 12  1  0  0  0  0
  4  5  2  0  0  0  0
  6 13  2  0  0  0  0
  5  6  1  0  0  0  0
  1 15  1  0  0  0  0
  2 16  1  0  0  0  0
  3 17  1  0  0  0  0
  3 18  1  0  0  0  0
  3 19  1  0  0  0  0
  5 20  1  0  0  0  0
  6 21  1  0  0  0  0
  7 22  1  0  0  0  0
  8 23  1  0  0  0  0
  8 24  1  0  0  0  0
  8 25  1  0  0  0  0
 13 26  1  0  0  0  0
M  END
> <OPENEYE_ISO_SMILES>
CNC(=O)c1cn(c2c1cccc2)C

> <OPENEYE_INCHI>
InChI=1S/C11H12N2O/c1-12-11(14)9-7-13(2)10-6-4-3-5-8(9)10/h3-7H,1-2H3,(H,12,14)

> <OPENEYE_INCHIKEY>
OHXYWSIWHXTWCT-UHFFFAOYSA-N

> <FORMULA>
C11H12N2O

$$$$
