@<TRIPOS>MOLECULE
/home/pku/3cl/gett_pdb/7FR1/7FR1_mol2/ligand/7FR1_WWC.pdb
 29 31 0 0 0
SMALL
GASTEIGER

@<TRIPOS>ATOM
      1  C17      -54.8920  -30.9770    7.5830 C.ar  201  WWC201      0.1267
      2  C15      -56.6450  -32.2680    7.5750 C.ar  201  WWC201      0.0963
      3  C13      -55.9570  -30.2420    8.0160 C.ar  201  WWC201      0.1826
      4  C11      -54.5580  -28.3940    8.2620 C.ar  201  WWC201      0.1206
      5  C01      -48.7460  -29.0230    7.3340 C.3   201  WWC201     -0.0512
      6  C02      -49.3820  -29.1150    5.9470 C.3   201  WWC201      0.0457
      7  C03      -48.3640  -29.3950    4.8450 C.3   201  WWC201     -0.0383
      8  C04      -49.0650  -28.0370    4.9120 C.3   201  WWC201     -0.0383
      9  C05      -50.7650  -29.7620    5.8500 C.2   201  WWC201      0.2350
     10  C09      -53.6180  -30.3470    7.5010 C.ar  201  WWC201      0.1638
     11  N07      -51.2050  -30.4930    7.0270 N.am  201  WWC201     -0.2348
     12  N08      -52.4700  -31.1100    7.0430 N.pl3 201  WWC201     -0.2466
     13  N10      -53.4930  -29.0720    7.8460 N.ar  201  WWC201     -0.2173
     14  N12      -55.7630  -28.9340    8.3540 N.ar  201  WWC201     -0.2144
     15  N14      -57.0400  -31.0640    8.0010 N.ar  201  WWC201     -0.2164
     16  N16      -55.3310  -32.2310    7.3100 N.ar  201  WWC201     -0.3404
     17  O06      -51.4460  -29.6610    4.8810 O.2   201  WWC201     -0.2737
     18 H151      -57.2820  -33.1330    7.4470 H     201  WWC201      0.1027
     19 H111      -54.4330  -27.3580    8.5340 H     201  WWC201      0.1048
     20 H011      -47.8310  -28.4570    7.2700 H     201  WWC201      0.0240
     21 H013      -48.5240  -30.0390    7.6690 H     201  WWC201      0.0240
     22 H012      -49.4350  -28.5500    8.0320 H     201  WWC201      0.0240
     23 H032      -47.3320  -29.4000    5.1730 H     201  WWC201      0.0275
     24 H031      -48.6800  -30.0700    4.0660 H     201  WWC201      0.0275
     25 H041      -49.8330  -27.8550    4.1610 H     201  WWC201      0.0275
     26 H042      -48.4660  -27.2180    5.2950 H     201  WWC201      0.0275
     27 H071      -50.6130  -30.5530    7.8360 H     201  WWC201      0.1728
     28 H081      -52.5780  -32.0570    6.7460 H     201  WWC201      0.1716
     29 H161      -54.7660  -32.9960    6.9700 H     201  WWC201      0.1669
@<TRIPOS>BOND
     1    24     7    1
     2    25     8    1
     3     7     8    1
     4     7    23    1
     5     7     6    1
     6    17     9    2
     7     8    26    1
     8     8     6    1
     9     9     6    1
    10     9    11   am
    11     6     5    1
    12    28    12    1
    13    29    16    1
    14    11    12    1
    15    11    27    1
    16    12    10    1
    17    20     5    1
    18    16     2   ar
    19    16     1   ar
    20     5    21    1
    21     5    22    1
    22    18     2    1
    23    10     1   ar
    24    10    13   ar
    25     2    15   ar
    26     1     3   ar
    27    13     4   ar
    28    15     3   ar
    29     3    14   ar
    30     4    14   ar
    31     4    19    1
