W0M
  -OEChem-02242320043D

 23 23  0     1  0  0  0  0  0999 V2000
    2.2610   -1.2650    0.2060 C   0  0  0  0  0  0  0  0  0  0  0  0
    2.7230    0.0090   -0.0730 C   0  0  0  0  0  0  0  0  0  0  0  0
    1.8290    1.0550   -0.2170 C   0  0  0  0  0  0  0  0  0  0  0  0
    0.4730    0.8290   -0.0830 C   0  0  0  0  0  0  0  0  0  0  0  0
   -3.5540   -0.1010   -0.3520 C   0  0  0  0  0  0  0  0  0  0  0  0
   -3.7800   -1.2920   -0.3090 O   0  0  0  0  0  0  0  0  0  0  0  0
   -4.5140    0.7520   -0.7590 N   0  0  0  0  0  0  0  0  0  0  0  0
   -2.2000    0.4240    0.0500 C   0  0  1  0  0  0  0  0  0  0  0  0
   -2.3400    1.2930    1.3010 C   0  0  0  0  0  0  0  0  0  0  0  0
   -1.3270   -0.6730    0.3270 O   0  0  0  0  0  0  0  0  0  0  0  0
    0.0070   -0.4480    0.1960 C   0  0  0  0  0  0  0  0  0  0  0  0
    4.4270    0.2960   -0.2410 Cl  0  0  0  0  0  0  0  0  0  0  0  0
    0.9060   -1.4950    0.3400 C   0  0  0  0  0  0  0  0  0  0  0  0
    2.9610   -2.0810    0.3130 H   0  0  0  0  0  0  0  0  0  0  0  0
    2.1910    2.0490   -0.4350 H   0  0  0  0  0  0  0  0  0  0  0  0
   -0.2250    1.6450   -0.1960 H   0  0  0  0  0  0  0  0  0  0  0  0
   -5.3860    0.4140   -1.0170 H   0  0  0  0  0  0  0  0  0  0  0  0
   -4.3340    1.7050   -0.7940 H   0  0  0  0  0  0  0  0  0  0  0  0
   -1.7860    1.0210   -0.7630 H   0  0  0  0  0  0  0  0  0  0  0  0
   -1.3610    1.6730    1.5910 H   0  0  0  0  0  0  0  0  0  0  0  0
   -3.0060    2.1300    1.0890 H   0  0  0  0  0  0  0  0  0  0  0  0
   -2.7540    0.6960    2.1140 H   0  0  0  0  0  0  0  0  0  0  0  0
    0.5450   -2.4910    0.5530 H   0  0  0  0  0  0  0  0  0  0  0  0
  2 12  1  0  0  0  0
  2  3  2  0  0  0  0
  3  4  1  0  0  0  0
  1  2  1  0  0  0  0
  4 11  2  0  0  0  0
  1 13  2  0  0  0  0
 11 13  1  0  0  0  0
 10 11  1  0  0  0  0
  8 10  1  0  0  0  0
  8  9  1  0  0  0  0
  5  8  1  0  0  0  0
  5  7  1  0  0  0  0
  5  6  2  0  0  0  0
  1 14  1  0  0  0  0
  3 15  1  0  0  0  0
  4 16  1  0  0  0  0
  7 17  1  0  0  0  0
  7 18  1  0  0  0  0
  8 19  1  0  0  0  0
  9 20  1  0  0  0  0
  9 21  1  0  0  0  0
  9 22  1  0  0  0  0
 13 23  1  0  0  0  0
M  END
> <OPENEYE_ISO_SMILES>
C[C@H](C(=O)N)Oc1ccc(cc1)Cl

> <OPENEYE_INCHI>
InChI=1S/C9H10ClNO2/c1-6(9(11)12)13-8-4-2-7(10)3-5-8/h2-6H,1H3,(H2,11,12)/t6-/m1/s1

> <OPENEYE_INCHIKEY>
GLBNTBLOLXXOFK-ZCFIWIBFSA-N

> <FORMULA>
C9H10ClNO2

$$$$
