@<TRIPOS>MOLECULE
/home/pku/3cl/gett_pdb/5SR5/5SR5_mol2/ligand/5SR5_QZ6.pdb
 35 38 0 0 0
SMALL
GASTEIGER

@<TRIPOS>ATOM
      1  C18      -43.9550  -29.3890    6.0220 C.2   201  QZ6201      0.1048
      2  C13      -43.9040  -33.2800    0.5420 C.3   201  QZ6201      0.0679
      3  C12      -43.6990  -31.8710   -0.0530 C.3   201  QZ6201     -0.0101
      4  C11      -44.7360  -31.2160    0.9630 C.3   201  QZ6201      0.0908
      5  C10      -44.2460  -29.9450    1.7450 C.3   201  QZ6201      0.0207
      6  C20      -47.8770  -29.1140    4.5970 C.ar  201  QZ6201      0.0087
      7  C02      -50.6450  -28.9180    4.8700 C.ar  201  QZ6201      0.1254
      8  C03      -49.9090  -28.9650    6.0330 C.ar  201  QZ6201     -0.0025
      9  C04      -48.5060  -29.0590    5.8780 C.ar  201  QZ6201      0.0510
     10  C06      -46.2400  -29.2210    6.2290 C.ar  201  QZ6201      0.1296
     11  C07      -46.4320  -29.2170    4.8080 C.ar  201  QZ6201      0.0472
     12  C08      -45.2260  -29.3080    4.0380 C.3   201  QZ6201      0.1855
     13  C21      -48.7280  -29.0620    3.4730 C.ar  201  QZ6201     -0.0494
     14  C22      -50.1190  -28.9580    3.5820 C.ar  201  QZ6201     -0.0258
     15  F01      -52.0340  -28.8240    4.9760 F     201  QZ6201     -0.2054
     16  N05      -47.4890  -29.1300    6.8590 N.ar  201  QZ6201     -0.3411
     17  N09      -45.2550  -29.3180    2.6300 N.3   201  QZ6201     -0.2837
     18  N17      -43.9960  -29.3910    4.6530 N.2   201  QZ6201     -0.2434
     19  N19      -45.0130  -29.3090    6.8450 N.pl3 201  QZ6201     -0.1859
     20  O15      -43.9590  -32.5700    3.0420 O.2   201  QZ6201     -0.1740
     21  O16      -46.0840  -33.2090    1.9790 O.2   201  QZ6201     -0.1740
     22  S14      -44.7690  -32.6820    1.8840 S.O2  201  QZ6201     -0.0269
     23 H181      -42.9530  -29.4590    6.5240 H     201  QZ6201      0.1015
     24 H131      -42.9980  -33.8200    0.7250 H     201  QZ6201      0.0500
     25 H132      -44.4200  -34.0030   -0.1290 H     201  QZ6201      0.0500
     26 H121      -42.6620  -31.4540   -0.0450 H     201  QZ6201      0.0300
     27 H122      -43.9290  -31.8280   -1.1020 H     201  QZ6201      0.0300
     28 H111      -45.7130  -30.9700    0.5050 H     201  QZ6201      0.0549
     29 H102      -43.3530  -30.2390    2.3290 H     201  QZ6201      0.0443
     30 H101      -43.8900  -29.2360    0.9570 H     201  QZ6201      0.0443
     31 H031      -50.4040  -28.9230    7.0040 H     201  QZ6201      0.0667
     32 H211      -48.2940  -29.1000    2.4580 H     201  QZ6201      0.0625
     33 H221      -50.7760  -28.9210    2.6920 H     201  QZ6201      0.0646
     34 H051      -47.6400  -29.1150    7.8710 H     201  QZ6201      0.1671
     35 H091      -46.0390  -28.8620    2.1730 H     201  QZ6201      0.1247
@<TRIPOS>BOND
     1    27     3    1
     2    25     2    1
     3     3    26    1
     4     3     2    1
     5     3     4    1
     6    28     4    1
     7     2    24    1
     8     2    22    1
     9    30     5    1
    10     4     5    1
    11     4    22    1
    12     5    29    1
    13     5    17    1
    14    22    21    2
    15    22    20    2
    16    35    17    1
    17    32    13    1
    18    17    12    1
    19    33    14    1
    20    13    14   ar
    21    13     6   ar
    22    14     7   ar
    23    12    18    1
    24    12    11    1
    25     6    11   ar
    26     6     9   ar
    27    18     1    2
    28    11    10   ar
    29     7    15    1
    30     7     8   ar
    31     9     8   ar
    32     9    16   ar
    33     1    23    1
    34     1    19    1
    35     8    31    1
    36    10    19    1
    37    10    16   ar
    38    16    34    1
