QJG
  -OEChem-02242320033D

 35 37  0     1  0  0  0  0  0999 V2000
    3.9850   -0.4920   -0.3200 C   0  0  0  0  0  0  0  0  0  0  0  0
    2.8880    0.3300   -0.0050 C   0  0  0  0  0  0  0  0  0  0  0  0
    3.8060   -1.8340   -0.4610 C   0  0  0  0  0  0  0  0  0  0  0  0
    2.5470   -2.4120   -0.2930 C   0  0  0  0  0  0  0  0  0  0  0  0
    1.4620   -1.6450    0.0190 C   0  0  0  0  0  0  0  0  0  0  0  0
    1.6110   -0.2600    0.1610 C   0  0  0  0  0  0  0  0  0  0  0  0
    0.5070    0.5710    0.4850 C   0  0  0  0  0  0  0  0  0  0  0  0
    2.0240    2.4380    0.4110 C   0  0  0  0  0  0  0  0  0  0  0  0
   -1.1290    1.9320   -1.8190 C   0  0  0  0  0  0  0  0  0  0  0  0
   -2.1580    1.7890   -0.6960 C   0  0  1  0  0  0  0  0  0  0  0  0
   -3.4650    1.1210   -1.1450 C   0  0  0  0  0  0  0  0  0  0  0  0
   -3.3790    0.4380    0.2270 C   0  0  1  0  0  0  0  0  0  0  0  0
   -3.8030   -1.0080    0.2050 C   0  0  0  0  0  0  0  0  0  0  0  0
   -0.8430    0.0000    0.6850 C   0  0  0  0  0  0  0  0  0  0  0  0
    0.7330    1.9330    0.6080 C   0  0  0  0  0  0  0  0  0  0  0  0
    2.4010   -3.7470   -0.4400 F   0  0  0  0  0  0  0  0  0  0  0  0
   -1.9220    0.6240    0.1700 N   0  0  0  0  0  0  0  0  0  0  0  0
    3.0400    1.6500    0.1390 N   0  0  0  0  0  0  0  0  0  0  0  0
   -2.9710   -1.8800    0.1250 O   0  0  0  0  0  0  0  0  0  0  0  0
   -5.1050   -1.3270    0.2760 O   0  0  0  0  0  0  0  0  0  0  0  0
    2.2390    3.7700    0.5460 O   0  0  0  0  0  0  0  0  0  0  0  0
   -0.9800   -1.0300    1.3150 O   0  0  0  0  0  0  0  0  0  0  0  0
    4.9660   -0.0600   -0.4550 H   0  0  0  0  0  0  0  0  0  0  0  0
    4.6500   -2.4600   -0.7080 H   0  0  0  0  0  0  0  0  0  0  0  0
    0.4930   -2.1020    0.1480 H   0  0  0  0  0  0  0  0  0  0  0  0
   -1.1550    1.0440   -2.4510 H   0  0  0  0  0  0  0  0  0  0  0  0
   -1.3650    2.8110   -2.4180 H   0  0  0  0  0  0  0  0  0  0  0  0
   -0.1340    2.0420   -1.3880 H   0  0  0  0  0  0  0  0  0  0  0  0
   -2.3110    2.7160   -0.1440 H   0  0  0  0  0  0  0  0  0  0  0  0
   -4.3050    1.8080   -1.2510 H   0  0  0  0  0  0  0  0  0  0  0  0
   -3.3520    0.4440   -1.9920 H   0  0  0  0  0  0  0  0  0  0  0  0
   -3.8590    1.0060    1.0250 H   0  0  0  0  0  0  0  0  0  0  0  0
   -0.0800    2.6000    0.8530 H   0  0  0  0  0  0  0  0  0  0  0  0
   -5.3280   -2.2680    0.2590 H   0  0  0  0  0  0  0  0  0  0  0  0
    2.1550    4.2670   -0.2800 H   0  0  0  0  0  0  0  0  0  0  0  0
  9 10  1  0  0  0  0
 10 11  1  0  0  0  0
 11 12  1  0  0  0  0
 13 19  2  0  0  0  0
 13 20  1  0  0  0  0
 12 13  1  0  0  0  0
 12 17  1  0  0  0  0
 14 17  1  0  0  0  0
  6  7  2  0  0  0  0
  5  6  1  0  0  0  0
  4  5  2  0  0  0  0
  4 16  1  0  0  0  0
  3  4  1  0  0  0  0
  1  3  2  0  0  0  0
  1  2  1  0  0  0  0
  2 18  2  0  0  0  0
  8 18  1  0  0  0  0
  8 21  1  0  0  0  0
  8 15  2  0  0  0  0
  7 14  1  0  0  0  0
 14 22  2  0  0  0  0
 10 17  1  0  0  0  0
  7 15  1  0  0  0  0
  2  6  1  0  0  0  0
  1 23  1  0  0  0  0
  3 24  1  0  0  0  0
  5 25  1  0  0  0  0
  9 26  1  0  0  0  0
  9 27  1  0  0  0  0
  9 28  1  0  0  0  0
 10 29  1  0  0  0  0
 11 30  1  0  0  0  0
 11 31  1  0  0  0  0
 12 32  1  0  0  0  0
 15 33  1  0  0  0  0
 20 34  1  0  0  0  0
 21 35  1  0  0  0  0
M  END
> <OPENEYE_ISO_SMILES>
C[C@H]1C[C@H](N1C(=O)c2cc(nc3c2cc(cc3)F)O)C(=O)O

> <OPENEYE_INCHI>
InChI=1S/C15H13FN2O4/c1-7-4-12(15(21)22)18(7)14(20)10-6-13(19)17-11-3-2-8(16)5-9(10)11/h2-3,5-7,12H,4H2,1H3,(H,17,19)(H,21,22)/t7-,12-/m0/s1

> <OPENEYE_INCHIKEY>
REGCRCQNLPXESK-MADCSZMMSA-N

> <FORMULA>
C15H13FN2O4

$$$$
