@<TRIPOS>MOLECULE
/home/pku/3cl/gett_pdb/7T40/7T40_mol2/ligand/7T40_FV5.pdb
 35 37 0 0 0
SMALL
GASTEIGER

@<TRIPOS>ATOM
      1  C12      -20.6220   -2.1920    6.4410 C.3   401  FV5401      0.0335
      2  C14      -20.4130   -4.4120    7.6220 C.2   401  FV5401      0.2410
      3  C16      -22.7630   -4.8920    7.8230 C.3   401  FV5401      0.1156
      4  C19      -20.8340    0.1360    5.3900 C.3   401  FV5401      0.2036
      5  C23      -22.0620   -7.5420    1.8180 C.3   401  FV5401      0.1705
      6  C24      -22.9770   -8.6180    1.1900 C.3   401  FV5401      0.0439
      7  C26      -22.0220   -9.4890   -0.9920 C.3   401  FV5401      0.0194
      8  C27      -22.9900  -10.5900   -1.2370 C.3   401  FV5401      0.0954
      9  C31      -23.5220  -13.2400   -2.7490 C.3   401  FV5401      0.1960
     10  C02      -21.5180   -5.2630    1.9160 C.2   401  FV5401      0.4214
     11  C04      -21.0230   -2.9120    1.7150 C.3   401  FV5401      0.1761
     12  C05      -21.1340   -1.8270    0.6250 C.3   401  FV5401      0.0312
     13  C06      -20.4990   -2.2590   -0.6960 C.3   401  FV5401      0.0022
     14  C07      -20.8360   -1.2940   -1.8530 C.3   401  FV5401      0.0001
     15  C08      -18.9720   -2.4210   -0.5540 C.3   401  FV5401      0.0001
     16  C09      -21.6060   -2.4310    3.0600 C.2   401  FV5401      0.2614
     17  C11      -21.2420   -1.3400    5.2810 C.3   401  FV5401      0.1287
     18  C13      -21.1260   -3.6300    6.4910 C.3   401  FV5401      0.0818
     19  C17      -22.6320   -3.7360    6.8330 C.3   401  FV5401      0.0326
     20  C25      -21.7610   -9.2590    0.4600 C.3   401  FV5401      0.0097
     21  C33      -22.0590  -11.7770    0.6960 C.3   401  FV5401      0.0954
     22  C34      -21.2080  -10.5460    1.0010 C.3   401  FV5401      0.0194
     23  C35      -20.9490   -8.0510    0.8650 C.3   401  FV5401      0.0439
     24  N03      -21.6920   -4.0800    1.2620 N.am  401  FV5401     -0.1611
     25  N10      -20.7970   -1.8280    3.9980 N.am  401  FV5401     -0.2030
     26  N15      -21.4030   -5.0990    8.3420 N.am  401  FV5401     -0.2054
     27  N28      -22.6220  -11.8910   -0.6410 N.3   401  FV5401     -0.1594
     28  O01      -20.6620   -5.4710    2.7530 O.2   401  FV5401     -0.2246
     29  O18      -19.2550   -4.4590    7.8740 O.2   401  FV5401     -0.2734
     30  O20      -21.5520    0.8520    4.3990 O.3   401  FV5401     -0.2185
     31  O21      -22.8000   -2.5950    3.2970 O.2   401  FV5401     -0.2715
     32  O22      -22.4160   -6.2280    1.5490 O.3   401  FV5401     -0.4373
     33  O30      -22.5390  -14.3520   -0.7280 O.2   401  FV5401     -0.1572
     34  O32      -24.6800  -13.2280   -0.5260 O.2   401  FV5401     -0.1572
     35  S29      -23.3740  -13.2680   -1.1030 S.O2  401  FV5401      0.0457
@<TRIPOS>BOND
     1     9    35    1
     2    14    13    1
     3     8     7    1
     4     8    27    1
     5    35    33    2
     6    35    27    1
     7    35    34    2
     8     7    20    1
     9    13    15    1
    10    13    12    1
    11    27    21    1
    12    20    23    1
    13    20    22    1
    14    20     6    1
    15    12    11    1
    16    21    22    1
    17    23     5    1
    18     6     5    1
    19    24    11    1
    20    24    10   am
    21    32     5    1
    22    32    10    1
    23    11    16    1
    24    10    28    2
    25    16    31    2
    26    16    25   am
    27    25    17    1
    28    30     4    1
    29    17     4    1
    30    17     1    1
    31     1    18    1
    32    18    19    1
    33    18     2    1
    34    19     3    1
    35     2    29    2
    36     2    26   am
    37     3    26    1
