VEG
  -OEChem-02242320043D

 65 66  0     1  0  0  0  0  0999 V2000
   -1.0410    1.4360   -0.6870 N   0  0  0  0  0  0  0  0  0  0  0  0
    3.6090    0.3940    0.2500 C   0  0  0  0  0  0  0  0  0  0  0  0
    1.2840    0.8420   -0.3250 C   0  0  0  0  0  0  0  0  0  0  0  0
    0.0840    0.6630   -1.2190 C   0  0  1  0  0  0  0  0  0  0  0  0
   -0.9790    2.7820   -0.6550 C   0  0  0  0  0  0  0  0  0  0  0  0
   -2.0890    3.5720   -0.0110 C   0  0  0  0  0  0  0  0  0  0  0  0
   -2.1820    0.7760   -0.2180 C   0  0  0  0  0  0  0  0  0  0  0  0
   -4.4380   -0.5290    0.7110 C   0  0  0  0  0  0  0  0  0  0  0  0
   -3.0290    0.1310   -1.1090 C   0  0  0  0  0  0  0  0  0  0  0  0
   -5.5880   -2.7220    0.8440 C   0  0  0  0  0  0  0  0  0  0  0  0
   -0.2890   -0.7960   -1.2740 C   0  0  0  0  0  0  0  0  0  0  0  0
   -0.6800   -1.4610   -0.1280 C   0  0  0  0  0  0  0  0  0  0  0  0
   -0.9780   -3.4270   -1.2910 C   0  0  0  0  0  0  0  0  0  0  0  0
   -0.2490   -1.4860   -2.4760 C   0  0  0  0  0  0  0  0  0  0  0  0
   -0.0300    3.3570   -1.1440 O   0  0  0  0  0  0  0  0  0  0  0  0
   -1.8420    5.0660   -0.2250 C   0  0  0  0  0  0  0  0  0  0  0  0
   -4.1550   -0.5190   -0.6430 C   0  0  0  0  0  0  0  0  0  0  0  0
   -5.6670   -1.2400    1.2160 C   0  0  0  0  0  0  0  0  0  0  0  0
   -5.7470   -1.1010    2.7380 C   0  0  0  0  0  0  0  0  0  0  0  0
   -6.9130   -0.6210    0.5810 C   0  0  0  0  0  0  0  0  0  0  0  0
   -3.5940    0.1080    1.6020 C   0  0  0  0  0  0  0  0  0  0  0  0
   -2.4670    0.7600    1.1410 C   0  0  0  0  0  0  0  0  0  0  0  0
   -1.0090   -2.7380   -0.1680 N   0  0  0  0  0  0  0  0  0  0  0  0
   -0.6010   -2.8270   -2.4780 C   0  0  0  0  0  0  0  0  0  0  0  0
    1.2070    1.5450    0.6600 O   0  0  0  0  0  0  0  0  0  0  0  0
    2.4430    0.2200   -0.6190 N   0  0  0  0  0  0  0  0  0  0  0  0
    4.7840   -0.4130   -0.3060 C   0  0  0  0  0  0  0  0  0  0  0  0
    5.9840   -0.2340    0.5890 C   0  0  0  0  0  0  0  0  0  0  0  0
    5.9070    0.4660    1.5700 O   0  0  0  0  0  0  0  0  0  0  0  0
    7.1380   -0.8540    0.2960 O   0  0  0  0  0  0  0  0  0  0  0  0
    8.2520   -0.6360    1.2020 C   0  0  0  0  0  0  0  0  0  0  0  0
    9.4710   -1.4170    0.7070 C   0  0  0  0  0  0  0  0  0  0  0  0
    3.8790    1.4490    0.2900 H   0  0  0  0  0  0  0  0  0  0  0  0
    3.3690    0.0420    1.2540 H   0  0  0  0  0  0  0  0  0  0  0  0
    0.3240    1.0150   -2.2230 H   0  0  0  0  0  0  0  0  0  0  0  0
   -3.0420    3.2930   -0.4610 H   0  0  0  0  0  0  0  0  0  0  0  0
   -2.1150    3.3570    1.0580 H   0  0  0  0  0  0  0  0  0  0  0  0
   -2.8090    0.1390   -2.1670 H   0  0  0  0  0  0  0  0  0  0  0  0
   -4.7000   -3.1640    1.2960 H   0  0  0  0  0  0  0  0  0  0  0  0
   -6.4760   -3.2370    1.2090 H   0  0  0  0  0  0  0  0  0  0  0  0
   -5.5310   -2.8220   -0.2410 H   0  0  0  0  0  0  0  0  0  0  0  0
   -0.7180   -0.9290    0.8110 H   0  0  0  0  0  0  0  0  0  0  0  0
   -1.2530   -4.4710   -1.2850 H   0  0  0  0  0  0  0  0  0  0  0  0
    0.0490   -0.9910   -3.3880 H   0  0  0  0  0  0  0  0  0  0  0  0
   -2.6450    5.6380    0.2410 H   0  0  0  0  0  0  0  0  0  0  0  0
   -0.8890    5.3450    0.2250 H   0  0  0  0  0  0  0  0  0  0  0  0
   -1.8160    5.2810   -1.2930 H   0  0  0  0  0  0  0  0  0  0  0  0
   -4.8140   -1.0210   -1.3360 H   0  0  0  0  0  0  0  0  0  0  0  0
   -5.8030   -0.0450    3.0030 H   0  0  0  0  0  0  0  0  0  0  0  0
   -6.6350   -1.6160    3.1040 H   0  0  0  0  0  0  0  0  0  0  0  0
   -4.8590   -1.5430    3.1900 H   0  0  0  0  0  0  0  0  0  0  0  0
   -6.8560   -0.7200   -0.5030 H   0  0  0  0  0  0  0  0  0  0  0  0
   -7.8020   -1.1350    0.9470 H   0  0  0  0  0  0  0  0  0  0  0  0
   -6.9690    0.4350    0.8470 H   0  0  0  0  0  0  0  0  0  0  0  0
   -3.8190    0.0990    2.6580 H   0  0  0  0  0  0  0  0  0  0  0  0
   -1.8080    1.2580    1.8380 H   0  0  0  0  0  0  0  0  0  0  0  0
   -0.5770   -3.3970   -3.3960 H   0  0  0  0  0  0  0  0  0  0  0  0
    2.5050   -0.3420   -1.4070 H   0  0  0  0  0  0  0  0  0  0  0  0
    4.5140   -1.4680   -0.3450 H   0  0  0  0  0  0  0  0  0  0  0  0
    5.0240   -0.0620   -1.3090 H   0  0  0  0  0  0  0  0  0  0  0  0
    8.4900    0.4270    1.2360 H   0  0  0  0  0  0  0  0  0  0  0  0
    7.9810   -0.9800    2.2000 H   0  0  0  0  0  0  0  0  0  0  0  0
    9.2330   -2.4800    0.6730 H   0  0  0  0  0  0  0  0  0  0  0  0
    9.7430   -1.0730   -0.2910 H   0  0  0  0  0  0  0  0  0  0  0  0
   10.3070   -1.2530    1.3870 H   0  0  0  0  0  0  0  0  0  0  0  0
 13 23  2  0  0  0  0
 13 24  1  0  0  0  0
 12 23  1  0  0  0  0
 14 24  2  0  0  0  0
 11 12  2  0  0  0  0
  6 16  1  0  0  0  0
  5  6  1  0  0  0  0
 11 14  1  0  0  0  0
  4 11  1  0  0  0  0
  3 25  2  0  0  0  0
  5 15  2  0  0  0  0
  1  5  1  0  0  0  0
  1  4  1  0  0  0  0
  3  4  1  0  0  0  0
 21 22  2  0  0  0  0
  7 22  1  0  0  0  0
  1  7  1  0  0  0  0
 28 29  2  0  0  0  0
  3 26  1  0  0  0  0
  8 21  1  0  0  0  0
  7  9  2  0  0  0  0
 31 32  1  0  0  0  0
 30 31  1  0  0  0  0
 28 30  1  0  0  0  0
 27 28  1  0  0  0  0
  2 26  1  0  0  0  0
  2 27  1  0  0  0  0
 18 20  1  0  0  0  0
  8 17  2  0  0  0  0
  8 18  1  0  0  0  0
  9 17  1  0  0  0  0
 10 18  1  0  0  0  0
 18 19  1  0  0  0  0
  2 33  1  0  0  0  0
  2 34  1  0  0  0  0
  4 35  1  0  0  0  0
  6 36  1  0  0  0  0
  6 37  1  0  0  0  0
  9 38  1  0  0  0  0
 10 39  1  0  0  0  0
 10 40  1  0  0  0  0
 10 41  1  0  0  0  0
 12 42  1  0  0  0  0
 13 43  1  0  0  0  0
 14 44  1  0  0  0  0
 16 45  1  0  0  0  0
 16 46  1  0  0  0  0
 16 47  1  0  0  0  0
 17 48  1  0  0  0  0
 19 49  1  0  0  0  0
 19 50  1  0  0  0  0
 19 51  1  0  0  0  0
 20 52  1  0  0  0  0
 20 53  1  0  0  0  0
 20 54  1  0  0  0  0
 21 55  1  0  0  0  0
 22 56  1  0  0  0  0
 24 57  1  0  0  0  0
 26 58  1  0  0  0  0
 27 59  1  0  0  0  0
 27 60  1  0  0  0  0
 31 61  1  0  0  0  0
 31 62  1  0  0  0  0
 32 63  1  0  0  0  0
 32 64  1  0  0  0  0
 32 65  1  0  0  0  0
M  END
> <OPENEYE_ISO_SMILES>
CCC(=O)N(c1ccc(cc1)C(C)(C)C)[C@H](c2cccnc2)C(=O)NCCC(=O)OCC

> <OPENEYE_INCHI>
InChI=1S/C25H33N3O4/c1-6-21(29)28(20-12-10-19(11-13-20)25(3,4)5)23(18-9-8-15-26-17-18)24(31)27-16-14-22(30)32-7-2/h8-13,15,17,23H,6-7,14,16H2,1-5H3,(H,27,31)/t23-/m1/s1

> <OPENEYE_INCHIKEY>
XNMCYXJNJDNZGB-HSZRJFAPSA-N

> <FORMULA>
C25H33N3O4

$$$$
