@<TRIPOS>MOLECULE
/home/pku/3cl/gett_pdb/8A4Y/8A4Y_mol2/ligand/8A4Y_QO6.pdb
 26 27 0 0 0
SMALL
GASTEIGER

@<TRIPOS>ATOM
      1  O13       16.9630  -12.3640   -0.0120 O.2   201  QO6201     -0.2758
      2  C11       17.5040  -13.4160   -0.0440 C.2   201  QO6201      0.2141
      3  C12       18.3100  -13.8100   -1.2800 C.3   201  QO6201      0.0125
      4  N10       17.4000  -14.3290    1.0780 N.am  201  QO6201     -0.2857
      5  C7        16.6310  -13.9940    2.2610 C.ar  201  QO6201      0.0336
      6  C3        17.1500  -13.1660    3.2530 C.ar  201  QO6201     -0.0370
      7  C9        15.3500  -14.5420    2.4020 C.ar  201  QO6201     -0.0402
      8  C5        14.5770  -14.2550    3.5230 C.ar  201  QO6201     -0.0566
      9  C2        15.0920  -13.4190    4.5250 C.ar  201  QO6201     -0.0441
     10  C6        14.4590  -12.9510    5.8580 C.3   201  QO6201     -0.0271
     11  C8        15.3470  -11.8120    6.3350 C.3   201  QO6201     -0.0450
     12  C4        16.6780  -12.0110    5.6300 C.3   201  QO6201     -0.0271
     13  C1        16.3680  -12.8800    4.3920 C.ar  201  QO6201     -0.0424
     14  H2        18.2360  -13.0240   -2.0260 H     201  QO6201      0.0323
     15  H3        17.9150  -14.7350   -1.6900 H     201  QO6201      0.0323
     16  H1        19.3510  -13.9510   -1.0040 H     201  QO6201      0.0323
     17  H4        17.8590  -15.2170    1.0300 H     201  QO6201      0.1548
     18  H5        18.1440  -12.7480    3.1520 H     201  QO6201      0.0639
     19  H7        14.9530  -15.1850    1.6260 H     201  QO6201      0.0636
     20  H8        13.5850  -14.6780    3.6240 H     201  QO6201      0.0621
     21  H10       14.4870  -13.7620    6.5790 H     201  QO6201      0.0313
     22 H102       13.4570  -12.5800    5.6740 H     201  QO6201      0.0313
     23  H11       14.9140  -10.8640    6.0330 H     201  QO6201      0.0272
     24 H092       15.4900  -11.8890    7.4080 H     201  QO6201      0.0272
     25  H12       17.0840  -11.0540    5.3220 H     201  QO6201      0.0313
     26  H13       17.3730  -12.5270    6.2840 H     201  QO6201      0.0313
@<TRIPOS>BOND
     1    14     3    1
     2    15     3    1
     3     3    16    1
     4     3     2    1
     5     2     1    2
     6     2     4   am
     7    17     4    1
     8     4     5    1
     9    19     7    1
    10     5     7   ar
    11     5     6   ar
    12     7     8   ar
    13    18     6    1
    14     6    13   ar
    15     8    20    1
    16     8     9   ar
    17    13     9   ar
    18    13    12    1
    19     9    10    1
    20    25    12    1
    21    12    26    1
    22    12    11    1
    23    22    10    1
    24    10    11    1
    25    10    21    1
    26    23    11    1
    27    11    24    1
