@<TRIPOS>MOLECULE
/home/pku/3cl/gett_pdb/5SRC/5SRC_mol2/ligand/5SRC_QIO.pdb
 41 44 0 0 0
SMALL
GASTEIGER

@<TRIPOS>ATOM
      1  C18      -48.6470  -28.7860    3.3550 C.ar  201  QIO201     -0.0491
      2  C16      -50.6380  -28.9340    4.7020 C.ar  201  QIO201      0.1254
      3  C17      -50.0360  -28.7670    3.4630 C.ar  201  QIO201     -0.0257
      4  C15      -49.8620  -29.1060    5.8280 C.ar  201  QIO201     -0.0025
      5  C14      -48.4760  -29.1200    5.7300 C.ar  201  QIO201      0.0515
      6  C13      -47.8610  -28.9630    4.5050 C.ar  201  QIO201      0.0124
      7  C12      -46.4580  -29.0500    4.7600 C.ar  201  QIO201      0.0663
      8  C11      -45.2770  -28.9710    4.0000 C.ar  201  QIO201      0.1344
      9  C02      -45.2850  -27.5590   -0.3800 C.3   201  QIO201      0.1076
     10  C03      -45.9270  -26.3040    0.2040 C.2   201  QIO201      0.1166
     11  C06      -44.1180  -28.1150    0.4790 C.3   201  QIO201      0.0069
     12  C07      -43.9280  -29.5910    0.1440 C.3   201  QIO201     -0.0446
     13  C08      -44.8760  -30.5360    0.8830 C.3   201  QIO201     -0.0368
     14  C09      -45.8910  -29.8250    1.7830 C.3   201  QIO201      0.0135
     15  C21      -46.3270  -29.2190    6.1200 C.ar  201  QIO201      0.1442
     16  C23      -44.0410  -29.2350    5.8990 C.ar  201  QIO201      0.1204
     17  C25      -44.2750  -27.9750    1.9940 C.3   201  QIO201      0.0191
     18  F19      -51.9940  -28.9220    4.8160 F     201  QIO201     -0.2054
     19  N10      -45.3720  -28.7280    2.5700 N.pl3 201  QIO201     -0.3142
     20  N20      -47.5370  -29.2690    6.6650 N.ar  201  QIO201     -0.3389
     21  N22      -45.1100  -29.3200    6.6520 N.ar  201  QIO201     -0.2178
     22  N24      -44.0990  -29.0510    4.5930 N.ar  201  QIO201     -0.2200
     23  O01      -46.2420  -28.5480   -0.6120 O.3   201  QIO201     -0.3849
     24  O04      -47.1570  -26.0990    0.0430 O.co2 201  QIO201     -0.8458
     25  O05      -45.2270  -25.4550    0.8160 O.co2 201  QIO201     -0.3063
     26 H181      -48.1830  -28.6520    2.3840 H     201  QIO201      0.0625
     27 H171      -50.6580  -28.6350    2.5850 H     201  QIO201      0.0646
     28 H151      -50.3190  -29.2360    6.7900 H     201  QIO201      0.0667
     29 H021      -44.8880  -27.2990   -1.3380 H     201  QIO201      0.0667
     30 H061      -43.2190  -27.6080    0.1890 H     201  QIO201      0.0345
     31 H071      -42.9240  -29.8790    0.4010 H     201  QIO201      0.0270
     32 H072      -44.0090  -29.7030   -0.9250 H     201  QIO201      0.0270
     33 H081      -44.2780  -31.1850    1.5190 H     201  QIO201      0.0280
     34 H082      -45.4130  -31.1600    0.1790 H     201  QIO201      0.0280
     35 H091      -46.2330  -30.5490    2.4830 H     201  QIO201      0.0464
     36 H092      -46.7520  -29.4880    1.2140 H     201  QIO201      0.0464
     37 H231      -43.0880  -29.3080    6.3740 H     201  QIO201      0.1048
     38 H251      -43.3660  -28.3620    2.4260 H     201  QIO201      0.0468
     39 H252      -44.3460  -26.9370    2.2920 H     201  QIO201      0.0468
     40 H201      -47.7130  -29.4020    7.6350 H     201  QIO201      0.1673
     41 H011      -47.0330  -28.1640   -0.9390 H     201  QIO201      0.2103
@<TRIPOS>UNITY_ATOM_ATTR
24 1
charge -1
@<TRIPOS>BOND
     1    29     9    1
     2    41    23    1
     3    32    12    1
     4    23     9    1
     5     9    10    1
     6     9    11    1
     7    24    10   ar
     8    12    31    1
     9    12    11    1
    10    12    13    1
    11    34    13    1
    12    30    11    1
    13    10    25   ar
    14    11    17    1
    15    13    33    1
    16    13    14    1
    17    36    14    1
    18    14    35    1
    19    14    19    1
    20    17    39    1
    21    17    38    1
    22    17    19    1
    23    26     1    1
    24    19     8    1
    25    27     3    1
    26     1     3   ar
    27     1     6   ar
    28     3     2   ar
    29     8    22   ar
    30     8     7   ar
    31     6     7   ar
    32     6     5   ar
    33    22    16   ar
    34     2    18    1
    35     2     4   ar
    36     7    15   ar
    37     5     4   ar
    38     5    20   ar
    39     4    28    1
    40    16    37    1
    41    16    21   ar
    42    15    21   ar
    43    15    20   ar
    44    20    40    1
