USH
  -OEChem-02242320043D

 39 39  0     0  0  0  0  0  0999 V2000
   -1.9990   -0.6770   -0.1760 N   0  0  0  0  0  0  0  0  0  0  0  0
   -3.8100   -3.6580    1.3060 C   0  0  0  0  0  0  0  0  0  0  0  0
   -0.7550   -0.9370   -0.9050 C   0  0  0  0  0  0  0  0  0  0  0  0
    0.3970   -0.2890   -0.1810 C   0  0  0  0  0  0  0  0  0  0  0  0
    2.7000    0.3020   -0.0660 C   0  0  0  0  0  0  0  0  0  0  0  0
    2.4430    1.4540    0.6620 C   0  0  0  0  0  0  0  0  0  0  0  0
    4.7810    1.6820    1.1330 C   0  0  0  0  0  0  0  0  0  0  0  0
    5.6330   -1.6940   -1.0060 C   0  0  0  0  0  0  0  0  0  0  0  0
   -2.3570    1.1920   -1.3170 O   0  0  0  0  0  0  0  0  0  0  0  0
   -2.7300    0.4190   -0.4600 C   0  0  0  0  0  0  0  0  0  0  0  0
   -2.4500   -1.6110    0.8590 C   0  0  0  0  0  0  0  0  0  0  0  0
   -3.3390   -2.6830    0.2250 C   0  0  0  0  0  0  0  0  0  0  0  0
    1.6470   -0.3960   -0.6720 N   0  0  0  0  0  0  0  0  0  0  0  0
    3.4830    2.1410    1.2600 C   0  0  0  0  0  0  0  0  0  0  0  0
    5.0460    0.5370    0.4050 C   0  0  0  0  0  0  0  0  0  0  0  0
    4.0090   -0.1570   -0.1970 C   0  0  0  0  0  0  0  0  0  0  0  0
    4.2680   -1.2830   -0.9140 O   0  0  0  0  0  0  0  0  0  0  0  0
    0.1980    0.3300    0.8430 O   0  0  0  0  0  0  0  0  0  0  0  0
   -4.0130    0.6830    0.2860 C   0  0  0  0  0  0  0  0  0  0  0  0
   -4.4440   -4.4220    0.8550 H   0  0  0  0  0  0  0  0  0  0  0  0
   -2.9450   -4.1310    1.7700 H   0  0  0  0  0  0  0  0  0  0  0  0
   -4.3780   -3.1160    2.0620 H   0  0  0  0  0  0  0  0  0  0  0  0
   -0.5870   -2.0120   -0.9650 H   0  0  0  0  0  0  0  0  0  0  0  0
   -0.8310   -0.5240   -1.9110 H   0  0  0  0  0  0  0  0  0  0  0  0
    1.4300    1.8150    0.7620 H   0  0  0  0  0  0  0  0  0  0  0  0
    5.5910    2.2210    1.6020 H   0  0  0  0  0  0  0  0  0  0  0  0
    5.7000   -2.6030   -1.6040 H   0  0  0  0  0  0  0  0  0  0  0  0
    6.2200   -0.9050   -1.4770 H   0  0  0  0  0  0  0  0  0  0  0  0
    6.0230   -1.8870   -0.0060 H   0  0  0  0  0  0  0  0  0  0  0  0
   -1.5850   -2.0840    1.3230 H   0  0  0  0  0  0  0  0  0  0  0  0
   -3.0170   -1.0690    1.6150 H   0  0  0  0  0  0  0  0  0  0  0  0
   -2.7720   -3.2250   -0.5310 H   0  0  0  0  0  0  0  0  0  0  0  0
   -4.2040   -2.2100   -0.2390 H   0  0  0  0  0  0  0  0  0  0  0  0
    1.8180   -0.9560   -1.4460 H   0  0  0  0  0  0  0  0  0  0  0  0
    3.2820    3.0380    1.8260 H   0  0  0  0  0  0  0  0  0  0  0  0
    6.0620    0.1820    0.3080 H   0  0  0  0  0  0  0  0  0  0  0  0
   -4.7040   -0.1450    0.1250 H   0  0  0  0  0  0  0  0  0  0  0  0
   -3.8010    0.7770    1.3510 H   0  0  0  0  0  0  0  0  0  0  0  0
   -4.7550    2.2110   -0.3170 Cl  0  0  0  0  0  0  0  0  0  0  0  0
  7 15  2  0  0  0  0
  7 14  1  0  0  0  0
 15 16  1  0  0  0  0
  6 14  2  0  0  0  0
  8 17  1  0  0  0  0
 16 17  1  0  0  0  0
  5 16  2  0  0  0  0
  5  6  1  0  0  0  0
  5 13  1  0  0  0  0
  4 13  1  0  0  0  0
  4 18  2  0  0  0  0
  3  4  1  0  0  0  0
  1  3  1  0  0  0  0
 10 19  1  0  0  0  0
  1 10  1  0  0  0  0
  1 11  1  0  0  0  0
  9 10  2  0  0  0  0
 11 12  1  0  0  0  0
  2 12  1  0  0  0  0
  2 20  1  0  0  0  0
  2 21  1  0  0  0  0
  2 22  1  0  0  0  0
  3 23  1  0  0  0  0
  3 24  1  0  0  0  0
  6 25  1  0  0  0  0
  7 26  1  0  0  0  0
  8 27  1  0  0  0  0
  8 28  1  0  0  0  0
  8 29  1  0  0  0  0
 11 30  1  0  0  0  0
 11 31  1  0  0  0  0
 12 32  1  0  0  0  0
 12 33  1  0  0  0  0
 13 34  1  0  0  0  0
 14 35  1  0  0  0  0
 15 36  1  0  0  0  0
 19 37  1  0  0  0  0
 19 38  1  0  0  0  0
 19 39  1  0  0  0  0
M  END
> <OPENEYE_ISO_SMILES>
CCCN(CC(=O)Nc1ccccc1OC)C(=O)CCl

> <OPENEYE_INCHI>
InChI=1S/C14H19ClN2O3/c1-3-8-17(14(19)9-15)10-13(18)16-11-6-4-5-7-12(11)20-2/h4-7H,3,8-10H2,1-2H3,(H,16,18)

> <OPENEYE_INCHIKEY>
NXCZZJXJRNCFHV-UHFFFAOYSA-N

> <FORMULA>
C14H19ClN2O3

$$$$
