Q6T
  -OEChem-02242320033D

 18 19  0     0  0  0  0  0  0999 V2000
    3.2510   -0.1350   -0.0480 O   0  0  0  0  0  0  0  0  0  0  0  0
    2.0500    0.4740    0.0050 C   0  0  0  0  0  0  0  0  0  0  0  0
    1.9860    1.6870    0.0490 O   0  0  0  0  0  0  0  0  0  0  0  0
    0.8150   -0.3300    0.0110 C   0  0  0  0  0  0  0  0  0  0  0  0
   -0.4350    0.3000    0.0610 C   0  0  0  0  0  0  0  0  0  0  0  0
   -1.5950   -0.4700    0.0600 C   0  0  0  0  0  0  0  0  0  0  0  0
   -2.6730    0.3670    0.1130 O   0  0  0  0  0  0  0  0  0  0  0  0
   -2.1710    1.6630   -0.2660 C   0  0  0  0  0  0  0  0  0  0  0  0
   -0.7830    1.6150    0.1140 O   0  0  0  0  0  0  0  0  0  0  0  0
   -1.5080   -1.8510    0.0100 C   0  0  0  0  0  0  0  0  0  0  0  0
   -0.2720   -2.4740   -0.0390 C   0  0  0  0  0  0  0  0  0  0  0  0
    0.8850   -1.7260   -0.0390 C   0  0  0  0  0  0  0  0  0  0  0  0
    4.0320    0.4340   -0.0490 H   0  0  0  0  0  0  0  0  0  0  0  0
   -0.2150   -3.5510   -0.0780 H   0  0  0  0  0  0  0  0  0  0  0  0
   -2.4090   -2.4460    0.0090 H   0  0  0  0  0  0  0  0  0  0  0  0
    1.8460   -2.2170   -0.0820 H   0  0  0  0  0  0  0  0  0  0  0  0
   -2.2690    1.8120   -1.3410 H   0  0  0  0  0  0  0  0  0  0  0  0
   -2.6910    2.4500    0.2800 H   0  0  0  0  0  0  0  0  0  0  0  0
  1  2  1  0  0  0  0
  2  3  2  0  0  0  0
 10 11  2  0  0  0  0
 11 12  1  0  0  0  0
  6 10  1  0  0  0  0
  6  7  1  0  0  0  0
  5  6  2  0  0  0  0
  7  8  1  0  0  0  0
  8  9  1  0  0  0  0
  5  9  1  0  0  0  0
  4  5  1  0  0  0  0
  4 12  2  0  0  0  0
  2  4  1  0  0  0  0
  1 13  1  0  0  0  0
 11 14  1  0  0  0  0
 10 15  1  0  0  0  0
 12 16  1  0  0  0  0
  8 17  1  0  0  0  0
  8 18  1  0  0  0  0
M  END
> <OPENEYE_ISO_SMILES>
c1cc(c2c(c1)OCO2)C(=O)O

> <OPENEYE_INCHI>
InChI=1S/C8H6O4/c9-8(10)5-2-1-3-6-7(5)12-4-11-6/h1-3H,4H2,(H,9,10)

> <OPENEYE_INCHIKEY>
DBUAYOWCIUQXQW-UHFFFAOYSA-N

> <FORMULA>
C8H6O4

$$$$
