@<TRIPOS>MOLECULE
/home/pku/3cl/gett_pdb/5SRY/5SRY_mol2/ligand/5SRY_RIW.pdb
 33 36 0 0 0
SMALL
GASTEIGER

@<TRIPOS>ATOM
      1  C18      -42.2310  -31.0980    1.4620 C.3   201  RIW201      0.0271
      2  C16      -43.3430  -28.9350    1.3930 C.3   201  RIW201      0.0344
      3  C17      -42.3270  -29.8240    0.6490 C.3   201  RIW201     -0.0271
      4  C13      -45.1950  -29.4330    4.3010 C.ar  201  RIW201      0.1481
      5  C11      -43.9810  -29.4440    6.2580 C.ar  201  RIW201      0.1204
      6  C19      -43.4230  -31.1650    2.2900 C.2   201  RIW201      0.2317
      7  C02      -50.5700  -28.9510    4.8000 C.ar  201  RIW201      0.1254
      8  C03      -49.9340  -29.0500    3.5590 C.ar  201  RIW201     -0.0257
      9  C04      -48.5500  -29.1770    3.4830 C.ar  201  RIW201     -0.0491
     10  C05      -47.8060  -29.1890    4.6890 C.ar  201  RIW201      0.0125
     11  C06      -48.4410  -29.0770    5.9060 C.ar  201  RIW201      0.0515
     12  C07      -49.8350  -28.9650    5.9700 C.ar  201  RIW201     -0.0025
     13  C09      -46.2870  -29.2420    6.3670 C.ar  201  RIW201      0.1442
     14  C21      -46.3920  -29.2940    5.0100 C.ar  201  RIW201      0.0675
     15  F01      -51.9210  -28.8510    4.8700 F     201  RIW201     -0.2054
     16  N08      -47.5160  -29.1220    6.8950 N.ar  201  RIW201     -0.3388
     17  N10      -45.0770  -29.3230    6.9600 N.ar  201  RIW201     -0.2178
     18  N12      -44.0300  -29.5010    4.9370 N.ar  201  RIW201     -0.2187
     19  N14      -45.2620  -29.4970    2.8840 N.pl3 201  RIW201     -0.2452
     20  N15      -44.0930  -29.8250    2.2170 N.am  201  RIW201     -0.2214
     21  O20      -43.7980  -32.1090    2.9020 O.2   201  RIW201     -0.2741
     22 H181      -41.3600  -31.0700    2.0950 H     201  RIW201      0.0359
     23 H182      -42.1920  -31.9660    0.8230 H     201  RIW201      0.0359
     24 H161      -44.0040  -28.4300    0.7000 H     201  RIW201      0.0483
     25 H162      -42.8420  -28.1950    2.0120 H     201  RIW201      0.0483
     26 H171      -41.3650  -29.3350    0.5940 H     201  RIW201      0.0285
     27 H172      -42.6910  -30.0430   -0.3430 H     201  RIW201      0.0285
     28 H111      -43.0350  -29.5090    6.7760 H     201  RIW201      0.1048
     29 H031      -50.5140  -29.0510    2.6550 H     201  RIW201      0.0646
     30 H041      -48.0450  -29.2710    2.5180 H     201  RIW201      0.0625
     31 H071      -50.3000  -28.8750    6.9360 H     201  RIW201      0.0667
     32 H081      -47.6980  -29.0560    7.8760 H     201  RIW201      0.1673
     33 H141      -46.1200  -29.3330    2.4130 H     201  RIW201      0.1718
@<TRIPOS>BOND
     1    27     3    1
     2    26     3    1
     3     3     2    1
     4     3     1    1
     5    24     2    1
     6    23     1    1
     7     2    25    1
     8     2    20    1
     9     1    22    1
    10     1     6    1
    11    20     6   am
    12    20    19    1
    13     6    21    2
    14    33    19    1
    15    30     9    1
    16    29     8    1
    17    19     4    1
    18     9     8   ar
    19     9    10   ar
    20     8     7   ar
    21     4    18   ar
    22     4    14   ar
    23    10    14   ar
    24    10    11   ar
    25     7    15    1
    26     7    12   ar
    27    18     5   ar
    28    14    13   ar
    29    11    12   ar
    30    11    16   ar
    31    12    31    1
    32     5    28    1
    33     5    17   ar
    34    13    16   ar
    35    13    17   ar
    36    16    32    1
