@<TRIPOS>MOLECULE
/home/pku/3cl/gett_pdb/5RT5/5RT5_mol2/ligand/5RT5_07L.pdb
 18 19 0 0 0
SMALL
GASTEIGER

@<TRIPOS>ATOM
      1  O11      -53.9470  -29.1070    6.2680 O.2   201  07L201     -0.2501
      2  C9       -52.7610  -29.1520    6.2060 C.2   201  07L201      0.3169
      3  C8       -52.0050  -29.2440    7.4840 C.3   201  07L201      0.0777
      4  C7       -50.5750  -29.0070    7.4470 C.3   201  07L201      0.0090
      5  C2       -49.8400  -29.0510    6.1240 C.ar  201  07L201     -0.0003
      6  O10      -52.0420  -29.1150    4.9540 O.3   201  07L201     -0.4252
      7  C3       -50.5800  -29.1050    4.9180 C.ar  201  07L201      0.1386
      8  C4       -49.9070  -29.1460    3.7100 C.ar  201  07L201      0.0225
      9  C5       -48.5210  -29.1420    3.6680 C.ar  201  07L201      0.1204
     10  O12      -47.9060  -29.2050    2.4130 O.3   201  07L201     -0.5066
     11  C6       -47.7680  -29.0820    4.8520 C.ar  201  07L201     -0.0197
     12  C1       -48.4330  -29.0400    6.0880 C.ar  201  07L201     -0.0513
     13  H1       -52.4360  -29.4470    8.2820 H     201  07L201      0.0428
     14  H2       -50.1110  -28.8290    8.2330 H     201  07L201      0.0364
     15  H3       -50.3900  -29.1890    2.9170 H     201  07L201      0.0691
     16  H4       -47.0960  -29.4440    2.5060 H     201  07L201      0.2921
     17  H5       -46.8390  -29.0840    4.8180 H     201  07L201      0.0654
     18  H6       -47.9460  -29.0050    6.8790 H     201  07L201      0.0623
@<TRIPOS>BOND
     1    10    16    1
     2    10     9    1
     3    15     8    1
     4     9     8   ar
     5     9    11   ar
     6     8     7   ar
     7    17    11    1
     8    11    12   ar
     9     7     6    1
    10     7     5   ar
    11     6     2    1
    12    12     5   ar
    13    12    18    1
    14     5     4    1
    15     2     1    2
    16     2     3    1
    17     4     3    1
    18     4    14    1
    19     3    13    1
