@<TRIPOS>MOLECULE
/home/pku/3cl/gett_pdb/7LZU/7LZU_mol2/ligand/7LZU_YKM.pdb
 32 33 0 0 0
SMALL
GASTEIGER

@<TRIPOS>ATOM
      1  C01        8.0680   25.3920   26.4250 C.3   401  YKM401      0.0474
      2  C02        9.4190   25.7760   25.7810 C.3   401  YKM401      0.1705
      3  C04       10.6670   23.8840   26.5180 C.2   401  YKM401      0.4214
      4  C06       11.6540   21.9580   27.6290 C.3   401  YKM401      0.1761
      5  C07       12.7560   21.6730   28.6540 C.3   401  YKM401      0.0312
      6  C08       14.1480   22.2220   28.2040 C.3   401  YKM401      0.0022
      7  C09       15.2640   21.8930   29.2360 C.3   401  YKM401      0.0001
      8  C10       14.5460   21.7130   26.7990 C.3   401  YKM401      0.0001
      9  C11       10.3000   21.4470   28.1190 C.2   401  YKM401      0.2614
     10  C13        8.5510   19.6010   28.1130 C.3   401  YKM401      0.1287
     11  C14        7.5880   19.5960   26.8760 C.3   401  YKM401      0.0335
     12  C15        7.2200   21.0000   26.3740 C.3   401  YKM401      0.0818
     13  C16        6.3050   20.9400   25.1610 C.2   401  YKM401      0.2410
     14  C18        5.2670   22.4710   26.6590 C.3   401  YKM401      0.1156
     15  C19        6.3800   21.7560   27.4240 C.3   401  YKM401      0.0326
     16  C21        8.7360   18.1580   28.6280 C.3   401  YKM401      0.2036
     17  C25        9.6740   27.3210   25.7700 C.3   401  YKM401      0.0406
     18  C26        8.6110   28.0820   24.9850 C.3   401  YKM401      0.0092
     19  C27        8.8320   29.5810   25.1280 C.3   401  YKM401      0.0667
     20  C28       10.2490   29.9920   24.6320 C.3   401  YKM401      0.2639
     21  C31       11.3940   29.1160   25.2100 C.3   401  YKM401      0.0667
     22  C32       11.0520   27.6200   25.1320 C.3   401  YKM401      0.0092
     23  F29       10.2810   29.9530   23.2670 F     401  YKM401     -0.2043
     24  F30       10.4950   31.3400   24.7960 F     401  YKM401     -0.2043
     25  N05       11.5800   23.3770   27.4140 N.am  401  YKM401     -0.1611
     26  N12        9.8590   20.1760   27.7220 N.am  401  YKM401     -0.2030
     27  N17        5.1980   21.7950   25.3520 N.am  401  YKM401     -0.2054
     28  O03       10.4020   25.2310   26.5870 O.3   401  YKM401     -0.4373
     29  O20        6.4890   20.2830   24.1410 O.2   401  YKM401     -0.2734
     30  O22        9.4980   18.2170   29.8200 O.3   401  YKM401     -0.2185
     31  O23        9.6010   22.1660   28.8430 O.2   401  YKM401     -0.2715
     32  O24       10.0960   23.1840   25.6840 O.2   401  YKM401     -0.2246
@<TRIPOS>BOND
     1    23    20    1
     2    29    13    2
     3    20    24    1
     4    20    19    1
     5    20    21    1
     6    18    19    1
     7    18    17    1
     8    22    21    1
     9    22    17    1
    10    13    27   am
    11    13    12    1
    12    27    14    1
    13    32     3    2
    14    17     2    1
    15     2     1    1
    16     2    28    1
    17    12    11    1
    18    12    15    1
    19     3    28    1
    20     3    25   am
    21    14    15    1
    22     8     6    1
    23    11    10    1
    24    25     4    1
    25     4     9    1
    26     4     5    1
    27    26    10    1
    28    26     9   am
    29    10    16    1
    30     9    31    2
    31     6     5    1
    32     6     7    1
    33    16    30    1
