WKA
  -OEChem-02242320043D

 20 21  0     0  0  0  0  0  0999 V2000
    1.4290    1.6870   -0.0180 N   0  0  0  0  0  0  0  0  0  0  0  0
    0.8990    0.4960   -0.0920 C   0  0  0  0  0  0  0  0  0  0  0  0
   -3.9350    1.1750    0.0030 C   0  0  0  0  0  0  0  0  0  0  0  0
   -2.7300    0.2740    0.0810 C   0  0  0  0  0  0  0  0  0  0  0  0
   -0.4130   -0.1120   -0.2730 C   0  0  0  0  0  0  0  0  0  0  0  0
   -0.5070   -1.4740   -0.2880 C   0  0  0  0  0  0  0  0  0  0  0  0
    0.6170   -2.2900   -0.1350 C   0  0  0  0  0  0  0  0  0  0  0  0
    1.8660   -1.7920    0.0370 C   0  0  0  0  0  0  0  0  0  0  0  0
    2.0720   -0.4000    0.0670 C   0  0  0  0  0  0  0  0  0  0  0  0
   -1.5500    0.6810   -0.4280 N   0  0  0  0  0  0  0  0  0  0  0  0
    3.0630    0.4460    0.2050 N   0  0  0  0  0  0  0  0  0  0  0  0
   -2.8220   -0.8180    0.6010 O   0  0  0  0  0  0  0  0  0  0  0  0
    2.6290    1.5790    0.1470 O   0  0  0  0  0  0  0  0  0  0  0  0
   -3.6610    2.1060   -0.4940 H   0  0  0  0  0  0  0  0  0  0  0  0
   -4.7240    0.6790   -0.5630 H   0  0  0  0  0  0  0  0  0  0  0  0
   -4.2920    1.3920    1.0100 H   0  0  0  0  0  0  0  0  0  0  0  0
   -1.4750   -1.9330   -0.4220 H   0  0  0  0  0  0  0  0  0  0  0  0
    0.4850   -3.3620   -0.1540 H   0  0  0  0  0  0  0  0  0  0  0  0
    2.7030   -2.4640    0.1520 H   0  0  0  0  0  0  0  0  0  0  0  0
   -1.4910    1.5250   -0.9010 H   0  0  0  0  0  0  0  0  0  0  0  0
 11 13  1  0  0  0  0
  1 13  1  0  0  0  0
  9 11  2  0  0  0  0
  1  2  2  0  0  0  0
  2  9  1  0  0  0  0
  8  9  1  0  0  0  0
  2  5  1  0  0  0  0
  7  8  2  0  0  0  0
  5 10  1  0  0  0  0
  5  6  2  0  0  0  0
  4 10  1  0  0  0  0
  6  7  1  0  0  0  0
  4 12  2  0  0  0  0
  3  4  1  0  0  0  0
  3 14  1  0  0  0  0
  3 15  1  0  0  0  0
  3 16  1  0  0  0  0
  6 17  1  0  0  0  0
  7 18  1  0  0  0  0
  8 19  1  0  0  0  0
 10 20  1  0  0  0  0
M  END
> <OPENEYE_ISO_SMILES>
CC(=O)Nc1cccc2c1non2

> <OPENEYE_INCHI>
InChI=1S/C8H7N3O2/c1-5(12)9-6-3-2-4-7-8(6)11-13-10-7/h2-4H,1H3,(H,9,12)

> <OPENEYE_INCHIKEY>
JJHRQXVBTBBRGJ-UHFFFAOYSA-N

> <FORMULA>
C8H7N3O2

$$$$
