S6N
  -OEChem-02242320043D

 40 42  0     1  0  0  0  0  0999 V2000
   -3.6030    1.0190    0.0260 C   0  0  0  0  0  0  0  0  0  0  0  0
   -4.8640   -0.7370   -0.5730 C   0  0  0  0  0  0  0  0  0  0  0  0
   -3.6160   -1.2250   -0.4620 C   0  0  0  0  0  0  0  0  0  0  0  0
   -2.7590   -0.1130   -0.0680 C   0  0  0  0  0  0  0  0  0  0  0  0
   -1.3930    0.0430    0.2110 C   0  0  0  0  0  0  0  0  0  0  0  0
   -0.4640   -1.1070    0.1280 C   0  0  0  0  0  0  0  0  0  0  0  0
   -1.7770    2.2800    0.6230 C   0  0  0  0  0  0  0  0  0  0  0  0
    1.0360   -3.3130   -0.2040 C   0  0  0  0  0  0  0  0  0  0  0  0
    1.7980   -2.0430    0.1830 C   0  0  0  0  0  0  0  0  0  0  0  0
    2.8610   -1.7400   -0.8770 C   0  0  0  0  0  0  0  0  0  0  0  0
    3.5270   -0.4000   -0.5580 C   0  0  0  0  0  0  0  0  0  0  0  0
    2.4780    0.7140   -0.5940 C   0  0  2  0  0  0  0  0  0  0  0  0
    3.1400    2.0380   -0.3120 C   0  0  0  0  0  0  0  0  0  0  0  0
    1.4100    0.4390    0.4690 C   0  0  0  0  0  0  0  0  0  0  0  0
    2.4700   -2.2420    1.5420 C   0  0  0  0  0  0  0  0  0  0  0  0
    0.8630   -0.9110    0.2560 N   0  0  0  0  0  0  0  0  0  0  0  0
   -4.8690    0.6030   -0.2910 N   0  0  0  0  0  0  0  0  0  0  0  0
   -3.0670    2.1820    0.3690 N   0  0  0  0  0  0  0  0  0  0  0  0
   -0.9550    1.2530    0.5520 N   0  0  0  0  0  0  0  0  0  0  0  0
    4.3290    2.0860   -0.1020 O   0  0  0  0  0  0  0  0  0  0  0  0
    2.4080    3.1630   -0.2920 O   0  0  0  0  0  0  0  0  0  0  0  0
   -0.8980   -2.2270   -0.0550 O   0  0  0  0  0  0  0  0  0  0  0  0
   -5.7330   -1.3140   -0.8530 H   0  0  0  0  0  0  0  0  0  0  0  0
   -3.3080   -2.2470   -0.6280 H   0  0  0  0  0  0  0  0  0  0  0  0
   -1.3770    3.2440    0.8990 H   0  0  0  0  0  0  0  0  0  0  0  0
    0.3450   -3.5800    0.5960 H   0  0  0  0  0  0  0  0  0  0  0  0
    0.4770   -3.1360   -1.1220 H   0  0  0  0  0  0  0  0  0  0  0  0
    1.7430   -4.1270   -0.3600 H   0  0  0  0  0  0  0  0  0  0  0  0
    3.6130   -2.5300   -0.8740 H   0  0  0  0  0  0  0  0  0  0  0  0
    2.3920   -1.6890   -1.8600 H   0  0  0  0  0  0  0  0  0  0  0  0
    3.9750   -0.4440    0.4350 H   0  0  0  0  0  0  0  0  0  0  0  0
    4.3010   -0.1930   -1.2960 H   0  0  0  0  0  0  0  0  0  0  0  0
    2.0120    0.7430   -1.5790 H   0  0  0  0  0  0  0  0  0  0  0  0
    1.8570    0.5000    1.4610 H   0  0  0  0  0  0  0  0  0  0  0  0
    0.6090    1.1740    0.3810 H   0  0  0  0  0  0  0  0  0  0  0  0
    3.1660   -3.0790    1.4840 H   0  0  0  0  0  0  0  0  0  0  0  0
    3.0120   -1.3370    1.8160 H   0  0  0  0  0  0  0  0  0  0  0  0
    1.7110   -2.4530    2.2960 H   0  0  0  0  0  0  0  0  0  0  0  0
   -5.6530    1.1730   -0.3120 H   0  0  0  0  0  0  0  0  0  0  0  0
    2.8770    3.9880   -0.1060 H   0  0  0  0  0  0  0  0  0  0  0  0
 10 11  1  0  0  0  0
  9 10  1  0  0  0  0
 11 12  1  0  0  0  0
 13 20  2  0  0  0  0
 13 21  1  0  0  0  0
 12 13  1  0  0  0  0
  9 15  1  0  0  0  0
  8  9  1  0  0  0  0
  9 16  1  0  0  0  0
 12 14  1  0  0  0  0
 14 16  1  0  0  0  0
  6 16  1  0  0  0  0
  6 22  2  0  0  0  0
  5  6  1  0  0  0  0
  3  4  1  0  0  0  0
  2  3  2  0  0  0  0
  4  5  2  0  0  0  0
  5 19  1  0  0  0  0
  1  4  1  0  0  0  0
  2 17  1  0  0  0  0
  7 19  2  0  0  0  0
  1 17  1  0  0  0  0
  1 18  2  0  0  0  0
  7 18  1  0  0  0  0
  2 23  1  0  0  0  0
  3 24  1  0  0  0  0
  7 25  1  0  0  0  0
  8 26  1  0  0  0  0
  8 27  1  0  0  0  0
  8 28  1  0  0  0  0
 10 29  1  0  0  0  0
 10 30  1  0  0  0  0
 11 31  1  0  0  0  0
 11 32  1  0  0  0  0
 12 33  1  0  0  0  0
 14 34  1  0  0  0  0
 14 35  1  0  0  0  0
 15 36  1  0  0  0  0
 15 37  1  0  0  0  0
 15 38  1  0  0  0  0
 17 39  1  0  0  0  0
 21 40  1  0  0  0  0
M  END
> <OPENEYE_ISO_SMILES>
CC1(CC[C@@H](CN1C(=O)c2c3cc[nH]c3ncn2)C(=O)O)C

> <OPENEYE_INCHI>
InChI=1S/C15H18N4O3/c1-15(2)5-3-9(14(21)22)7-19(15)13(20)11-10-4-6-16-12(10)18-8-17-11/h4,6,8-9H,3,5,7H2,1-2H3,(H,21,22)(H,16,17,18)/t9-/m0/s1

> <OPENEYE_INCHIKEY>
LHAVLCJMCJXCKW-VIFPVBQESA-N

> <FORMULA>
C15H18N4O3

$$$$
