@<TRIPOS>MOLECULE
/home/pku/3cl/gett_pdb/7TQ2/7TQ2_mol2/ligand/7TQ2_ISG.pdb
 32 34 0 0 0
SMALL
GASTEIGER

@<TRIPOS>ATOM
      1  C11       23.6400   -3.2830   15.9730 C.3   401  ISG401      0.1287
      2  C12       22.6700   -2.4460   16.8170 C.3   401  ISG401      0.0335
      3  C16       24.3260    0.5540   18.5380 C.3   401  ISG401      0.1156
      4  C02       25.3800    0.8710   13.3400 C.2   401  ISG401      0.4215
      5  C04       25.0220   -1.4660   12.6350 C.3   401  ISG401      0.1761
      6  C05       25.5910   -2.6120   11.7170 C.3   401  ISG401      0.0312
      7  C06       25.6780   -2.2320   10.1950 C.3   401  ISG401      0.0022
      8  C07       25.6140   -3.5050    9.3000 C.3   401  ISG401      0.0001
      9  C08       24.5460   -1.2220    9.8050 C.3   401  ISG401      0.0001
     10  C09       24.9190   -2.0300   14.1320 C.2   401  ISG401      0.2614
     11  C13       23.1540   -0.9270   16.9290 C.3   401  ISG401      0.0818
     12  C14       22.2200    0.0590   17.7540 C.2   401  ISG401      0.2410
     13  C17       24.3240   -0.9000   17.8630 C.3   401  ISG401      0.0326
     14  C19       23.1230   -4.7880   15.8780 C.3   401  ISG401      0.2036
     15  C23       25.6660    3.1350   14.3810 C.3   401  ISG401      0.2104
     16  C24       25.4830    4.5340   13.5700 C.3   401  ISG401      0.0483
     17  C25       26.7560    5.4150   13.2330 C.3   401  ISG401      0.0261
     18  C26       26.0740    4.5740   12.1700 C.3   401  ISG401      0.0085
     19  C27       27.1330    6.9000   12.8670 C.ar  401  ISG401     -0.0224
     20  C28       26.7560    7.9560   13.7900 C.ar  401  ISG401     -0.0043
     21  C29       27.0890    9.3210   13.5450 C.ar  401  ISG401     -0.0003
     22  C30       27.8110    9.6660   12.3620 C.ar  401  ISG401     -0.0000
     23  C31       28.2040    8.6540   11.4400 C.ar  401  ISG401     -0.0003
     24  C32       27.8690    7.2920   11.7040 C.ar  401  ISG401     -0.0043
     25  N03       25.8350   -0.2430   12.5750 N.am  401  ISG401     -0.1611
     26  N10       23.7870   -2.7180   14.5800 N.am  401  ISG401     -0.2030
     27  N15       22.9160    0.9000   18.6670 N.am  401  ISG401     -0.2054
     28  O01       24.2890    0.7950   13.8780 O.2   401  ISG401     -0.2246
     29  O18       21.0210    0.0490   17.5640 O.2   401  ISG401     -0.2734
     30  O20       24.0810   -5.5880   15.2670 O.3   401  ISG401     -0.2185
     31  O21       25.8750   -1.8460   14.8570 O.2   401  ISG401     -0.2715
     32  O22       26.1230    2.0370   13.4990 O.3   401  ISG401     -0.4335
@<TRIPOS>BOND
     1     8     7    1
     2     9     7    1
     3     7     6    1
     4    23    24   ar
     5    23    22   ar
     6    24    19   ar
     7     6     5    1
     8    18    17    1
     9    18    16    1
    10    22    21   ar
    11    25     5    1
    12    25     4   am
    13     5    10    1
    14    19    17    1
    15    19    20   ar
    16    17    16    1
    17     4    32    1
    18     4    28    2
    19    32    15    1
    20    21    20   ar
    21    16    15    1
    22    10    26   am
    23    10    31    2
    24    26     1    1
    25    30    14    1
    26    14     1    1
    27     1     2    1
    28     2    11    1
    29    11    12    1
    30    11    13    1
    31    29    12    2
    32    12    27   am
    33    13     3    1
    34     3    27    1
