W7V
  -OEChem-02242320043D

 30 32  0     1  0  0  0  0  0999 V2000
    2.2510   -1.0400   -0.8030 C   0  0  0  0  0  0  0  0  0  0  0  0
   -3.1320   -0.9910   -0.0040 C   0  0  0  0  0  0  0  0  0  0  0  0
   -0.3910   -1.9920    0.3890 C   0  0  0  0  0  0  0  0  0  0  0  0
    0.2750    0.3430    0.1850 C   0  0  0  0  0  0  0  0  0  0  0  0
    1.7140   -0.0940    0.2920 C   0  0  1  0  0  0  0  0  0  0  0  0
    2.3900   -0.1190    1.6640 C   0  0  0  0  0  0  0  0  0  0  0  0
    2.8370    0.9140    0.5910 C   0  0  1  0  0  0  0  0  0  0  0  0
    4.0170    0.5460   -0.3310 C   0  0  0  0  0  0  0  0  0  0  0  0
    3.3570   -0.2150   -1.5070 C   0  0  0  0  0  0  0  0  0  0  0  0
   -2.0470   -0.1750    0.0100 C   0  0  0  0  0  0  0  0  0  0  0  0
   -2.4960    1.1390   -0.1870 C   0  0  0  0  0  0  0  0  0  0  0  0
   -0.7110   -0.5760    0.1920 N   0  0  0  0  0  0  0  0  0  0  0  0
   -3.7980    1.1150   -0.3160 N   0  0  0  0  0  0  0  0  0  0  0  0
   -4.2270   -0.2140   -0.2050 N   0  0  0  0  0  0  0  0  0  0  0  0
    0.0050    1.5220    0.0940 O   0  0  0  0  0  0  0  0  0  0  0  0
    2.6720   -1.9400   -0.3560 H   0  0  0  0  0  0  0  0  0  0  0  0
    1.4600   -1.2970   -1.5070 H   0  0  0  0  0  0  0  0  0  0  0  0
   -3.1250   -2.0650    0.1170 H   0  0  0  0  0  0  0  0  0  0  0  0
   -0.3250   -2.2050    1.4560 H   0  0  0  0  0  0  0  0  0  0  0  0
   -1.1730   -2.6060   -0.0560 H   0  0  0  0  0  0  0  0  0  0  0  0
    0.5630   -2.2180   -0.0860 H   0  0  0  0  0  0  0  0  0  0  0  0
    1.8190    0.2590    2.5120 H   0  0  0  0  0  0  0  0  0  0  0  0
    3.0560   -0.9540    1.8810 H   0  0  0  0  0  0  0  0  0  0  0  0
    2.6220    1.9720    0.7450 H   0  0  0  0  0  0  0  0  0  0  0  0
    4.5150    1.4470   -0.6910 H   0  0  0  0  0  0  0  0  0  0  0  0
    4.7250   -0.0960    0.1930 H   0  0  0  0  0  0  0  0  0  0  0  0
    4.0770   -0.8730   -1.9940 H   0  0  0  0  0  0  0  0  0  0  0  0
    2.9220    0.4820   -2.2240 H   0  0  0  0  0  0  0  0  0  0  0  0
   -1.8730    2.0210   -0.2260 H   0  0  0  0  0  0  0  0  0  0  0  0
   -5.1440   -0.5240   -0.2660 H   0  0  0  0  0  0  0  0  0  0  0  0
  1  9  1  0  0  0  0
  1  5  1  0  0  0  0
  3 12  1  0  0  0  0
  4 15  2  0  0  0  0
  8  9  1  0  0  0  0
  4 12  1  0  0  0  0
 10 12  1  0  0  0  0
  4  5  1  0  0  0  0
 10 11  1  0  0  0  0
 11 13  2  0  0  0  0
  2 10  2  0  0  0  0
  5  6  1  0  0  0  0
  5  7  1  0  0  0  0
 13 14  1  0  0  0  0
  2 14  1  0  0  0  0
  7  8  1  0  0  0  0
  6  7  1  0  0  0  0
  1 16  1  0  0  0  0
  1 17  1  0  0  0  0
  2 18  1  0  0  0  0
  3 19  1  0  0  0  0
  3 20  1  0  0  0  0
  3 21  1  0  0  0  0
  6 22  1  0  0  0  0
  6 23  1  0  0  0  0
  7 24  1  0  0  0  0
  8 25  1  0  0  0  0
  8 26  1  0  0  0  0
  9 27  1  0  0  0  0
  9 28  1  0  0  0  0
 11 29  1  0  0  0  0
 14 30  1  0  0  0  0
M  END
> <OPENEYE_ISO_SMILES>
CN(c1c[nH]nc1)C(=O)[C@@]23CCC[C@@H]2C3

> <OPENEYE_INCHI>
InChI=1S/C11H15N3O/c1-14(9-6-12-13-7-9)10(15)11-4-2-3-8(11)5-11/h6-8H,2-5H2,1H3,(H,12,13)/t8-,11-/m1/s1

> <OPENEYE_INCHIKEY>
KPSCQDHJPNEXSJ-LDYMZIIASA-N

> <FORMULA>
C11H15N3O

$$$$
