YKA
  -OEChem-02242320043D

 74 75  0     1  0  0  0  0  0999 V2000
   -3.7930    2.5900    0.9540 C   0  0  0  0  0  0  0  0  0  0  0  0
   -4.0250    1.0800    1.0240 C   0  0  0  0  0  0  0  0  0  0  0  0
   -1.6920    0.5910    0.9060 C   0  0  0  0  0  0  0  0  0  0  0  0
    0.7130    0.2000    0.9270 C   0  0  1  0  0  0  0  0  0  0  0  0
    0.9380   -0.7650    2.0930 C   0  0  0  0  0  0  0  0  0  0  0  0
   -0.0390   -0.4360    3.2230 C   0  0  0  0  0  0  0  0  0  0  0  0
    0.1010   -1.4760    4.3370 C   0  0  0  0  0  0  0  0  0  0  0  0
    0.2750    0.9540    3.7810 C   0  0  0  0  0  0  0  0  0  0  0  0
    1.7540   -0.0430   -0.1350 C   0  0  0  0  0  0  0  0  0  0  0  0
    4.0780   -0.2300   -0.8440 C   0  0  1  0  0  0  0  0  0  0  0  0
    5.0610    0.9340   -0.9780 C   0  0  0  0  0  0  0  0  0  0  0  0
    4.3450    2.1380   -1.5930 C   0  0  1  0  0  0  0  0  0  0  0  0
    3.4610    2.8190   -0.5670 C   0  0  0  0  0  0  0  0  0  0  0  0
    4.9210    4.4120   -1.1040 C   0  0  0  0  0  0  0  0  0  0  0  0
    5.3550    3.2450   -1.9650 C   0  0  0  0  0  0  0  0  0  0  0  0
    4.8330   -1.4880   -0.4080 C   0  0  2  0  0  0  0  0  0  0  0  0
   -4.1220    0.6460    2.4890 C   0  0  0  0  0  0  0  0  0  0  0  0
   -5.3280    0.7300    0.3020 C   0  0  0  0  0  0  0  0  0  0  0  0
   -5.2310    1.1630   -1.1630 C   0  0  0  0  0  0  0  0  0  0  0  0
   -6.5330    0.8130   -1.8850 C   0  0  0  0  0  0  0  0  0  0  0  0
   -6.7660   -0.6970   -1.8140 C   0  0  0  0  0  0  0  0  0  0  0  0
   -6.8630   -1.1310   -0.3500 C   0  0  0  0  0  0  0  0  0  0  0  0
   -5.5600   -0.7810    0.3720 C   0  0  0  0  0  0  0  0  0  0  0  0
   -7.9570   -1.0170   -2.4750 F   0  0  0  0  0  0  0  0  0  0  0  0
   -5.6990   -1.3630   -2.4280 F   0  0  0  0  0  0  0  0  0  0  0  0
   -0.6210   -0.0200    0.3620 N   0  0  0  0  0  0  0  0  0  0  0  0
    3.0620    0.1010    0.1580 N   0  0  0  0  0  0  0  0  0  0  0  0
    3.8950    4.0750   -0.3920 N   0  0  0  0  0  0  0  0  0  0  0  0
   -2.9180    0.3890    0.3870 O   0  0  0  0  0  0  0  0  0  0  0  0
    2.5170    2.3110    0.0020 O   0  0  0  0  0  0  0  0  0  0  0  0
    5.8860   -1.7570   -1.3360 O   0  0  0  0  0  0  0  0  0  0  0  0
    1.4150   -0.3680   -1.2530 O   0  0  0  0  0  0  0  0  0  0  0  0
   -1.5520    1.3240    1.8650 O   0  0  0  0  0  0  0  0  0  0  0  0
   -3.7240    2.8990   -0.0890 H   0  0  0  0  0  0  0  0  0  0  0  0
   -4.6240    3.1090    1.4320 H   0  0  0  0  0  0  0  0  0  0  0  0
   -2.8650    2.8400    1.4690 H   0  0  0  0  0  0  0  0  0  0  0  0
    0.7910    1.2270    1.2850 H   0  0  0  0  0  0  0  0  0  0  0  0
    0.7730   -1.7880    1.7550 H   0  0  0  0  0  0  0  0  0  0  0  0
    1.9610   -0.6630    2.4560 H   0  0  0  0  0  0  0  0  0  0  0  0
   -1.0580   -0.4510    2.8380 H   0  0  0  0  0  0  0  0  0  0  0  0
    1.1200   -1.4610    4.7220 H   0  0  0  0  0  0  0  0  0  0  0  0
   -0.5950   -1.2420    5.1420 H   0  0  0  0  0  0  0  0  0  0  0  0
   -0.1230   -2.4660    3.9390 H   0  0  0  0  0  0  0  0  0  0  0  0
    0.1760    1.6950    2.9880 H   0  0  0  0  0  0  0  0  0  0  0  0
   -0.4210    1.1880    4.5870 H   0  0  0  0  0  0  0  0  0  0  0  0
    1.2950    0.9690    4.1660 H   0  0  0  0  0  0  0  0  0  0  0  0
    3.5950   -0.4110   -1.8050 H   0  0  0  0  0  0  0  0  0  0  0  0
    5.4430    1.2020    0.0070 H   0  0  0  0  0  0  0  0  0  0  0  0
    5.8900    0.6370   -1.6210 H   0  0  0  0  0  0  0  0  0  0  0  0
    3.7630    1.8370   -2.4640 H   0  0  0  0  0  0  0  0  0  0  0  0
    5.3970    5.3810   -1.0860 H   0  0  0  0  0  0  0  0  0  0  0  0
    6.3700    2.9380   -1.7140 H   0  0  0  0  0  0  0  0  0  0  0  0
    5.2780    3.4970   -3.0220 H   0  0  0  0  0  0  0  0  0  0  0  0
    3.6900   -2.8960   -0.3670 S   0  0  0  0  0  0  0  0  0  0  0  0
    5.2540   -1.3330    0.5850 H   0  0  0  0  0  0  0  0  0  0  0  0
   -4.9530    1.1650    2.9670 H   0  0  0  0  0  0  0  0  0  0  0  0
   -4.2880   -0.4300    2.5390 H   0  0  0  0  0  0  0  0  0  0  0  0
   -3.1940    0.8960    3.0030 H   0  0  0  0  0  0  0  0  0  0  0  0
   -6.1590    1.2480    0.7800 H   0  0  0  0  0  0  0  0  0  0  0  0
   -5.0650    2.2390   -1.2130 H   0  0  0  0  0  0  0  0  0  0  0  0
   -4.4000    0.6450   -1.6400 H   0  0  0  0  0  0  0  0  0  0  0  0
   -7.3650    1.3310   -1.4070 H   0  0  0  0  0  0  0  0  0  0  0  0
   -6.4640    1.1220   -2.9280 H   0  0  0  0  0  0  0  0  0  0  0  0
   -7.6940   -0.6130    0.1280 H   0  0  0  0  0  0  0  0  0  0  0  0
   -7.0280   -2.2070   -0.3000 H   0  0  0  0  0  0  0  0  0  0  0  0
   -4.7290   -1.2990   -0.1060 H   0  0  0  0  0  0  0  0  0  0  0  0
   -5.6290   -1.0890    1.4150 H   0  0  0  0  0  0  0  0  0  0  0  0
   -0.7330   -0.6050   -0.4030 H   0  0  0  0  0  0  0  0  0  0  0  0
    3.3300    0.4240    1.0320 H   0  0  0  0  0  0  0  0  0  0  0  0
    6.5360   -1.0440   -1.4100 H   0  0  0  0  0  0  0  0  0  0  0  0
    2.6210   -2.4880    0.6370 O   0  0  0  0  0  0  0  0  0  0  0  0
    2.9890   -3.0060   -1.5990 O   0  0  0  0  0  0  0  0  0  0  0  0
    4.3130   -4.0270    0.2240 O   0  0  0  0  0  0  0  0  0  0  0  0
    1.9300   -3.1520    0.7670 H   0  0  0  0  0  0  0  0  0  0  0  0
 14 28  2  0  0  0  0
 14 15  1  0  0  0  0
 13 28  1  0  0  0  0
 13 30  2  0  0  0  0
 12 13  1  0  0  0  0
 12 15  1  0  0  0  0
 11 12  1  0  0  0  0
 10 11  1  0  0  0  0
 10 16  1  0  0  0  0
 10 27  1  0  0  0  0
 16 31  1  0  0  0  0
  1  2  1  0  0  0  0
  9 32  2  0  0  0  0
  9 27  1  0  0  0  0
  2 17  1  0  0  0  0
  4  9  1  0  0  0  0
  2 29  1  0  0  0  0
  2 18  1  0  0  0  0
  3 33  2  0  0  0  0
  3 29  1  0  0  0  0
 18 19  1  0  0  0  0
 19 20  1  0  0  0  0
  3 26  1  0  0  0  0
 18 23  1  0  0  0  0
  4 26  1  0  0  0  0
  4  5  1  0  0  0  0
 20 21  1  0  0  0  0
  5  6  1  0  0  0  0
 22 23  1  0  0  0  0
 21 22  1  0  0  0  0
 21 25  1  0  0  0  0
 21 24  1  0  0  0  0
  6  7  1  0  0  0  0
  6  8  1  0  0  0  0
  1 34  1  0  0  0  0
  1 35  1  0  0  0  0
  1 36  1  0  0  0  0
  4 37  1  0  0  0  0
  5 38  1  0  0  0  0
  5 39  1  0  0  0  0
  6 40  1  0  0  0  0
  7 41  1  0  0  0  0
  7 42  1  0  0  0  0
  7 43  1  0  0  0  0
  8 44  1  0  0  0  0
  8 45  1  0  0  0  0
  8 46  1  0  0  0  0
 10 47  1  0  0  0  0
 11 48  1  0  0  0  0
 11 49  1  0  0  0  0
 12 50  1  0  0  0  0
 14 51  1  0  0  0  0
 15 52  1  0  0  0  0
 15 53  1  0  0  0  0
 16 54  1  0  0  0  0
 16 55  1  0  0  0  0
 17 56  1  0  0  0  0
 17 57  1  0  0  0  0
 17 58  1  0  0  0  0
 18 59  1  0  0  0  0
 19 60  1  0  0  0  0
 19 61  1  0  0  0  0
 20 62  1  0  0  0  0
 20 63  1  0  0  0  0
 22 64  1  0  0  0  0
 22 65  1  0  0  0  0
 23 66  1  0  0  0  0
 23 67  1  0  0  0  0
 26 68  1  0  0  0  0
 27 69  1  0  0  0  0
 31 70  1  0  0  0  0
 54 71  1  0  0  0  0
 54 72  2  0  0  0  0
 54 73  2  0  0  0  0
 71 74  1  0  0  0  0
M  END
> <OPENEYE_ISO_SMILES>
CC(C)C[C@@H](C(=O)N[C@@H](C[C@@H]1CC=NC1=O)[C@H](O)S(=O)(=O)O)NC(=O)OC(C)(C)C2CCC(CC2)(F)F

> <OPENEYE_INCHI>
InChI=1S/C23H37F2N3O8S/c1-13(2)11-16(28-21(32)36-22(3,4)15-5-8-23(24,25)9-6-15)19(30)27-17(20(31)37(33,34)35)12-14-7-10-26-18(14)29/h10,13-17,20,31H,5-9,11-12H2,1-4H3,(H,27,30)(H,28,32)(H,33,34,35)/t14-,16-,17-,20+/m0/s1

> <OPENEYE_INCHIKEY>
AFVXFMYQWMALEA-JWWIWJDOSA-N

> <FORMULA>
C23H37F2N3O8S

$$$$
