YKD
  -OEChem-02242320043D

 74 75  0     1  0  0  0  0  0999 V2000
   -4.7040   -1.2660   -0.2510 C   0  0  0  0  0  0  0  0  0  0  0  0
   -4.1630   -2.4730    0.5170 C   0  0  1  0  0  0  0  0  0  0  0  0
   -5.2290   -3.0560    1.4220 C   0  0  0  0  0  0  0  0  0  0  0  0
   -4.7810   -4.7370    0.0310 C   0  0  0  0  0  0  0  0  0  0  0  0
   -3.8530   -3.6400   -0.4450 C   0  0  0  0  0  0  0  0  0  0  0  0
    4.5040    1.6350    1.7570 C   0  0  0  0  0  0  0  0  0  0  0  0
    5.7890    0.4510   -0.0290 C   0  0  0  0  0  0  0  0  0  0  0  0
    8.2840    0.3730    0.0700 C   0  0  0  0  0  0  0  0  0  0  0  0
    4.4320   -0.8590    1.6100 C   0  0  0  0  0  0  0  0  0  0  0  0
    4.5050    0.4390    0.8020 C   0  0  0  0  0  0  0  0  0  0  0  0
    2.1390    0.5240    0.4970 C   0  0  0  0  0  0  0  0  0  0  0  0
   -0.2870    0.7150    0.3650 C   0  0  1  0  0  0  0  0  0  0  0  0
   -0.5470    2.1740    0.7420 C   0  0  0  0  0  0  0  0  0  0  0  0
   -1.8240    2.2650    1.5790 C   0  0  0  0  0  0  0  0  0  0  0  0
   -1.6040    1.5640    2.9210 C   0  0  0  0  0  0  0  0  0  0  0  0
   -2.1720    3.7350    1.8230 C   0  0  0  0  0  0  0  0  0  0  0  0
   -1.3470    0.2470   -0.5980 C   0  0  0  0  0  0  0  0  0  0  0  0
   -3.5740   -0.6280   -1.0610 C   0  0  1  0  0  0  0  0  0  0  0  0
   -4.1440    0.4820   -1.9470 C   0  0  1  0  0  0  0  0  0  0  0  0
    7.0000    0.3610    0.9020 C   0  0  0  0  0  0  0  0  0  0  0  0
    8.2850   -0.8220   -0.8840 C   0  0  0  0  0  0  0  0  0  0  0  0
    7.0740   -0.7330   -1.8150 C   0  0  0  0  0  0  0  0  0  0  0  0
    5.7900   -0.7450   -0.9830 C   0  0  0  0  0  0  0  0  0  0  0  0
    9.4590   -0.8120   -1.6450 F   0  0  0  0  0  0  0  0  0  0  0  0
    8.2190   -2.0090   -0.1450 F   0  0  0  0  0  0  0  0  0  0  0  0
    1.0310    0.6010   -0.2660 N   0  0  0  0  0  0  0  0  0  0  0  0
   -2.5790   -0.0600   -0.1470 N   0  0  0  0  0  0  0  0  0  0  0  0
   -5.4750   -4.3170    1.0390 N   0  0  0  0  0  0  0  0  0  0  0  0
    3.3550    0.5230   -0.0810 O   0  0  0  0  0  0  0  0  0  0  0  0
   -5.7700   -2.4780    2.3410 O   0  0  0  0  0  0  0  0  0  0  0  0
   -5.1950   -0.0490   -2.7560 O   0  0  0  0  0  0  0  0  0  0  0  0
   -1.0920    0.1480   -1.7800 O   0  0  0  0  0  0  0  0  0  0  0  0
    2.0410    0.4560    1.7060 O   0  0  0  0  0  0  0  0  0  0  0  0
   -5.4960   -1.5900   -0.9260 H   0  0  0  0  0  0  0  0  0  0  0  0
   -5.1040   -0.5360    0.4530 H   0  0  0  0  0  0  0  0  0  0  0  0
   -3.2770   -2.1990    1.0900 H   0  0  0  0  0  0  0  0  0  0  0  0
   -4.8540   -5.7220   -0.4050 H   0  0  0  0  0  0  0  0  0  0  0  0
   -4.0830   -3.3610   -1.4740 H   0  0  0  0  0  0  0  0  0  0  0  0
   -2.8120   -3.9510   -0.3530 H   0  0  0  0  0  0  0  0  0  0  0  0
    5.3660    1.5710    2.4200 H   0  0  0  0  0  0  0  0  0  0  0  0
    4.5550    2.5590    1.1810 H   0  0  0  0  0  0  0  0  0  0  0  0
    3.5890    1.6260    2.3490 H   0  0  0  0  0  0  0  0  0  0  0  0
    5.8400    1.3750   -0.6050 H   0  0  0  0  0  0  0  0  0  0  0  0
    8.3360    1.2980   -0.5060 H   0  0  0  0  0  0  0  0  0  0  0  0
    9.1470    0.3100    0.7330 H   0  0  0  0  0  0  0  0  0  0  0  0
    3.5170   -0.8670    2.2030 H   0  0  0  0  0  0  0  0  0  0  0  0
    4.4330   -1.7110    0.9310 H   0  0  0  0  0  0  0  0  0  0  0  0
    5.2950   -0.9220    2.2730 H   0  0  0  0  0  0  0  0  0  0  0  0
   -0.3140    0.0970    1.2630 H   0  0  0  0  0  0  0  0  0  0  0  0
    0.2940    2.5560    1.3190 H   0  0  0  0  0  0  0  0  0  0  0  0
   -0.6650    2.7680   -0.1650 H   0  0  0  0  0  0  0  0  0  0  0  0
   -2.6430    1.7810    1.0470 H   0  0  0  0  0  0  0  0  0  0  0  0
   -2.5330    1.5710    3.4920 H   0  0  0  0  0  0  0  0  0  0  0  0
   -1.2930    0.5340    2.7470 H   0  0  0  0  0  0  0  0  0  0  0  0
   -0.8300    2.0870    3.4820 H   0  0  0  0  0  0  0  0  0  0  0  0
   -2.3280    4.2340    0.8660 H   0  0  0  0  0  0  0  0  0  0  0  0
   -3.0810    3.7990    2.4200 H   0  0  0  0  0  0  0  0  0  0  0  0
   -1.3530    4.2180    2.3550 H   0  0  0  0  0  0  0  0  0  0  0  0
   -3.1020   -1.3850   -1.6860 H   0  0  0  0  0  0  0  0  0  0  0  0
   -4.7980    1.8130   -0.9020 S   0  0  0  0  0  0  0  0  0  0  0  0
   -3.3560    0.8760   -2.5880 H   0  0  0  0  0  0  0  0  0  0  0  0
    6.9990    1.2140    1.5810 H   0  0  0  0  0  0  0  0  0  0  0  0
    6.9480   -0.5630    1.4770 H   0  0  0  0  0  0  0  0  0  0  0  0
    7.1260    0.1910   -2.3910 H   0  0  0  0  0  0  0  0  0  0  0  0
    7.0750   -1.5850   -2.4950 H   0  0  0  0  0  0  0  0  0  0  0  0
    5.7380   -1.6690   -0.4080 H   0  0  0  0  0  0  0  0  0  0  0  0
    4.9270   -0.6820   -1.6460 H   0  0  0  0  0  0  0  0  0  0  0  0
    1.1050    0.5810   -1.2330 H   0  0  0  0  0  0  0  0  0  0  0  0
   -2.8080    0.0950    0.7830 H   0  0  0  0  0  0  0  0  0  0  0  0
   -5.9330   -0.4180   -2.2510 H   0  0  0  0  0  0  0  0  0  0  0  0
   -5.8810    1.3410   -0.1120 O   0  0  0  0  0  0  0  0  0  0  0  0
   -3.7370    2.5580   -0.3210 O   0  0  0  0  0  0  0  0  0  0  0  0
   -5.4430    2.7820   -1.8830 O   0  0  0  0  0  0  0  0  0  0  0  0
   -5.8420    3.5570   -1.4640 H   0  0  0  0  0  0  0  0  0  0  0  0
  4 28  2  0  0  0  0
  4  5  1  0  0  0  0
  3 28  1  0  0  0  0
  3 30  2  0  0  0  0
  2  3  1  0  0  0  0
  2  5  1  0  0  0  0
 19 31  1  0  0  0  0
  1  2  1  0  0  0  0
  1 18  1  0  0  0  0
 18 19  1  0  0  0  0
 18 27  1  0  0  0  0
  9 10  1  0  0  0  0
 17 32  2  0  0  0  0
 17 27  1  0  0  0  0
  6 10  1  0  0  0  0
 10 29  1  0  0  0  0
  7 10  1  0  0  0  0
 12 17  1  0  0  0  0
 11 33  2  0  0  0  0
 11 29  1  0  0  0  0
  7 20  1  0  0  0  0
  8 20  1  0  0  0  0
 11 26  1  0  0  0  0
  7 23  1  0  0  0  0
 12 26  1  0  0  0  0
 12 13  1  0  0  0  0
  8 21  1  0  0  0  0
 13 14  1  0  0  0  0
 22 23  1  0  0  0  0
 21 22  1  0  0  0  0
 21 25  1  0  0  0  0
 21 24  1  0  0  0  0
 14 15  1  0  0  0  0
 14 16  1  0  0  0  0
  1 34  1  0  0  0  0
  1 35  1  0  0  0  0
  2 36  1  0  0  0  0
  4 37  1  0  0  0  0
  5 38  1  0  0  0  0
  5 39  1  0  0  0  0
  6 40  1  0  0  0  0
  6 41  1  0  0  0  0
  6 42  1  0  0  0  0
  7 43  1  0  0  0  0
  8 44  1  0  0  0  0
  8 45  1  0  0  0  0
  9 46  1  0  0  0  0
  9 47  1  0  0  0  0
  9 48  1  0  0  0  0
 12 49  1  0  0  0  0
 13 50  1  0  0  0  0
 13 51  1  0  0  0  0
 14 52  1  0  0  0  0
 15 53  1  0  0  0  0
 15 54  1  0  0  0  0
 15 55  1  0  0  0  0
 16 56  1  0  0  0  0
 16 57  1  0  0  0  0
 16 58  1  0  0  0  0
 18 59  1  0  0  0  0
 19 60  1  0  0  0  0
 19 61  1  0  0  0  0
 20 62  1  0  0  0  0
 20 63  1  0  0  0  0
 22 64  1  0  0  0  0
 22 65  1  0  0  0  0
 23 66  1  0  0  0  0
 23 67  1  0  0  0  0
 26 68  1  0  0  0  0
 27 69  1  0  0  0  0
 31 70  1  0  0  0  0
 60 71  2  0  0  0  0
 60 72  2  0  0  0  0
 60 73  1  0  0  0  0
 73 74  1  0  0  0  0
M  END
> <OPENEYE_ISO_SMILES>
CC(C)C[C@@H](C(=O)N[C@@H](C[C@@H]1CC=NC1=O)[C@@H](O)S(=O)(=O)O)NC(=O)OC(C)(C)C2CCC(CC2)(F)F

> <OPENEYE_INCHI>
InChI=1S/C23H37F2N3O8S/c1-13(2)11-16(28-21(32)36-22(3,4)15-5-8-23(24,25)9-6-15)19(30)27-17(20(31)37(33,34)35)12-14-7-10-26-18(14)29/h10,13-17,20,31H,5-9,11-12H2,1-4H3,(H,27,30)(H,28,32)(H,33,34,35)/t14-,16-,17-,20-/m0/s1

> <OPENEYE_INCHIKEY>
AFVXFMYQWMALEA-VERUCKTNSA-N

> <FORMULA>
C23H37F2N3O8S

$$$$
