@<TRIPOS>MOLECULE
/home/pku/3cl/gett_pdb/5RSJ/5RSJ_mol2/ligand/5RSJ_W5A.pdb
 27 29 0 0 0
SMALL
GASTEIGER

@<TRIPOS>ATOM
      1  C10      -44.6270  -28.3980    1.2560 C.ar  201  W5A201      0.0684
      2  C13      -44.8050  -26.6130   -0.0970 C.ar  201  W5A201      0.0756
      3  C02      -47.5740  -28.9510    5.1880 C.ar  201  W5A201      0.1471
      4  C03      -46.2020  -29.1480    5.4150 C.ar  201  W5A201      0.1473
      5  C05      -44.2490  -29.4470    6.0830 C.ar  201  W5A201      0.1192
      6  C07      -45.4030  -29.3740    4.3460 C.ar  201  W5A201      0.1656
      7  C09      -45.1430  -29.6220    1.9630 C.3   201  W5A201      0.0687
      8  C11      -43.3480  -27.9370    1.2580 C.ar  201  W5A201      0.0004
      9  C14      -45.4520  -25.6530   -1.0560 C.3   201  W5A201     -0.0159
     10  C16      -47.2320  -29.1360    2.9860 C.ar  201  W5A201      0.0999
     11  N01      -48.4320  -28.7040    6.3040 N.pl3 201  W5A201     -0.3413
     12  N04      -45.4280  -29.1410    6.5090 N.ar  201  W5A201     -0.2289
     13  N06      -44.1540  -29.5190    4.7770 N.ar  201  W5A201     -0.2160
     14  N08      -45.9080  -29.3570    3.1460 N.ar  201  W5A201     -0.3089
     15  N15      -45.4470  -27.6290    0.4440 N.ar  201  W5A201     -0.2474
     16  N17      -48.0050  -28.9790    3.9950 N.ar  201  W5A201     -0.2206
     17  S12      -43.2420  -26.5340    0.3310 S.2   201  W5A201     -0.0805
     18 H051      -43.5080  -29.4920    6.6440 H     201  W5A201      0.1048
     19 H092      -44.3850  -30.1760    2.2070 H     201  W5A201      0.0558
     20 H091      -45.7000  -30.1200    1.3440 H     201  W5A201      0.0558
     21 H111      -42.6560  -28.2900    1.7690 H     201  W5A201      0.0712
     22 H142      -44.9390  -25.6270   -1.8790 H     201  W5A201      0.0298
     23 H141      -45.4770  -24.7680   -0.6610 H     201  W5A201      0.0298
     24 H143      -46.3560  -25.9470   -1.2480 H     201  W5A201      0.0298
     25 H161      -47.6000  -29.1780    2.1330 H     201  W5A201      0.1030
     26 H012      -48.9180  -29.3390    6.6210 H     201  W5A201      0.1438
     27 H011      -48.4620  -27.9210    6.6580 H     201  W5A201      0.1438
@<TRIPOS>BOND
     1    22     9    1
     2    24     9    1
     3     9    23    1
     4     9     2    1
     5     2    17   ar
     6     2    15   ar
     7    17     8   ar
     8    15     1   ar
     9     1     8   ar
    10     1     7    1
    11     8    21    1
    12    20     7    1
    13     7    19    1
    14     7    14    1
    15    25    10    1
    16    10    14   ar
    17    10    16   ar
    18    14     6   ar
    19    16     3   ar
    20     6    13   ar
    21     6     4    1
    22    13     5   ar
    23     3     4   ar
    24     3    11    1
    25     4    12   ar
    26     5    12   ar
    27     5    18    1
    28    11    26    1
    29    11    27    1
