@<TRIPOS>MOLECULE
/home/pku/3cl/gett_pdb/5RUV/5RUV_mol2/ligand/5RUV_W6J.pdb
 28 29 0 0 0
SMALL
GASTEIGER

@<TRIPOS>ATOM
      1  C10      -38.5690   -0.8930   17.9490 C.3   201  W6J201      0.0117
      2  N12      -35.4650    0.8070   17.4860 N.ar  201  W6J201     -0.2403
      3  C13      -34.5120    1.5060   17.9100 C.ar  201  W6J201      0.0297
      4  C01      -34.4670    2.8840   17.6680 C.ar  201  W6J201     -0.0435
      5  C02      -35.4870    3.4540   16.9130 C.ar  201  W6J201     -0.0571
      6  C03      -36.4890    2.6380   16.5100 C.ar  201  W6J201     -0.0217
      7  C04      -36.4710    1.3170   16.7950 C.ar  201  W6J201      0.1212
      8  C06      -38.5690    1.0030   15.5110 C.3   201  W6J201      0.0147
      9  C07      -39.7400    1.4940   16.3490 C.3   201  W6J201     -0.0246
     10  C08      -40.5870    0.3920   17.0320 C.3   201  W6J201     -0.0026
     11  C11      -37.6190   -0.9200   16.8240 C.3   201  W6J201      0.0260
     12  N05      -37.5620    0.4250   16.2900 N.pl3 201  W6J201     -0.3139
     13  N09      -39.9540   -0.7020   17.7240 N.3   201  W6J201     -0.3144
     14 H101      -38.2220   -0.7380   18.7870 H     201  W6J201      0.0439
     15 H102      -38.6260   -1.8260   18.0400 H     201  W6J201      0.0439
     16 H131      -33.8350    1.1040   18.4040 H     201  W6J201      0.0830
     17 H011      -33.7600    3.4000   17.9800 H     201  W6J201      0.0633
     18 H021      -35.5060    4.3660   16.7350 H     201  W6J201      0.0619
     19 H031      -37.1820    2.9970   16.0090 H     201  W6J201      0.0652
     20 H062      -38.8980    0.3360   14.9380 H     201  W6J201      0.0464
     21 H061      -38.2360    1.6990   14.9810 H     201  W6J201      0.0464
     22 H072      -40.3070    1.9960   15.7940 H     201  W6J201      0.0293
     23 H071      -39.4030    2.0600   17.0180 H     201  W6J201      0.0293
     24 H081      -41.1310    0.0170   16.3650 H     201  W6J201      0.0424
     25 H082      -41.1480    0.8230   17.6470 H     201  W6J201      0.0424
     26 H112      -36.7750   -1.1930   17.1290 H     201  W6J201      0.0477
     27 H111      -37.9280   -1.5090   16.1610 H     201  W6J201      0.0477
     28  H1       -40.3930   -0.8810   18.4510 H     201  W6J201      0.1220
@<TRIPOS>BOND
     1    20     8    1
     2    21     8    1
     3     8    12    1
     4     8     9    1
     5    22     9    1
     6    19     6    1
     7    27    11    1
     8    12     7    1
     9    12    11    1
    10     9    23    1
    11     9    10    1
    12    24    10    1
    13     6     7   ar
    14     6     5   ar
    15    18     5    1
    16     7     2   ar
    17    11    26    1
    18    11     1    1
    19     5     4   ar
    20    10    25    1
    21    10    13    1
    22     2     3   ar
    23     4     3   ar
    24     4    17    1
    25    13     1    1
    26    13    28    1
    27     3    16    1
    28     1    15    1
    29     1    14    1
