JNZ
  -OEChem-02242320033D

 17 18  0     0  0  0  0  0  0999 V2000
   -2.0950    1.2480    0.0000 C   0  0  0  0  0  0  0  0  0  0  0  0
   -2.5850   -0.0520    0.0000 C   0  0  0  0  0  0  0  0  0  0  0  0
   -0.7500    1.4840    0.0000 C   0  0  0  0  0  0  0  0  0  0  0  0
   -1.7340   -1.1210   -0.0000 C   0  0  0  0  0  0  0  0  0  0  0  0
    0.1410    0.4070    0.0000 C   0  0  0  0  0  0  0  0  0  0  0  0
   -0.3570   -0.9100   -0.0000 C   0  0  0  0  0  0  0  0  0  0  0  0
    1.6010    0.2940   -0.0000 C   0  0  0  0  0  0  0  0  0  0  0  0
    1.8990   -0.9780   -0.0000 N   0  0  0  0  0  0  0  0  0  0  0  0
    0.7300   -1.7450    0.0000 N   0  0  0  0  0  0  0  0  0  0  0  0
    2.5100    1.3550    0.0000 N   0  0  0  0  0  0  0  0  0  0  0  0
   -2.7830    2.0790   -0.0040 H   0  0  0  0  0  0  0  0  0  0  0  0
   -3.6520   -0.2200    0.0000 H   0  0  0  0  0  0  0  0  0  0  0  0
   -0.3760    2.4970   -0.0000 H   0  0  0  0  0  0  0  0  0  0  0  0
   -2.1280   -2.1260    0.0000 H   0  0  0  0  0  0  0  0  0  0  0  0
    0.6940   -2.7150    0.0000 H   0  0  0  0  0  0  0  0  0  0  0  0
    2.1880    2.2700    0.0000 H   0  0  0  0  0  0  0  0  0  0  0  0
    3.4640    1.1760    0.0000 H   0  0  0  0  0  0  0  0  0  0  0  0
  1  2  2  0  0  0  0
  1  3  1  0  0  0  0
  2  4  1  0  0  0  0
  3  5  2  0  0  0  0
  4  6  2  0  0  0  0
  5  6  1  0  0  0  0
  5  7  1  0  0  0  0
  6  9  1  0  0  0  0
  7  8  2  0  0  0  0
  7 10  1  0  0  0  0
  8  9  1  0  0  0  0
  1 11  1  0  0  0  0
  2 12  1  0  0  0  0
  3 13  1  0  0  0  0
  4 14  1  0  0  0  0
  9 15  1  0  0  0  0
 10 16  1  0  0  0  0
 10 17  1  0  0  0  0
M  END
> <OPENEYE_ISO_SMILES>
c1ccc2c(c1)c(n[nH]2)N

> <OPENEYE_INCHI>
InChI=1S/C7H7N3/c8-7-5-3-1-2-4-6(5)9-10-7/h1-4H,(H3,8,9,10)

> <OPENEYE_INCHIKEY>
YDTDKKULPWTHRV-UHFFFAOYSA-N

> <FORMULA>
C7H7N3

$$$$
