Y51
  -OEChem-02242320043D

 69 71  0     1  0  0  0  0  0999 V2000
    8.0600    0.4510   -0.9060 C   0  0  2  0  0  0  0  0  0  0  0  0
   -3.7310    1.1850   -1.6120 C   0  0  2  0  0  0  0  0  0  0  0  0
   -3.8660   -3.1200   -0.9410 C   0  0  0  0  0  0  0  0  0  0  0  0
   -4.4160   -4.4470   -0.3720 C   0  0  0  0  0  0  0  0  0  0  0  0
    6.1730   -1.1030   -0.8430 C   0  0  2  0  0  0  0  0  0  0  0  0
    4.9960   -0.9660    0.1250 C   0  0  0  0  0  0  0  0  0  0  0  0
    2.6750   -0.4100    0.0980 C   0  0  0  0  0  0  0  0  0  0  0  0
   -4.0460   -2.1630    0.2600 C   0  0  2  0  0  0  0  0  0  0  0  0
   -5.1670   -2.7830    1.0640 C   0  0  0  0  0  0  0  0  0  0  0  0
    7.4490   -1.5960   -0.0890 C   0  0  1  0  0  0  0  0  0  0  0  0
    8.5730   -1.0300   -1.0320 C   0  0  0  0  0  0  0  0  0  0  0  0
    7.5840   -0.6240    1.0900 C   0  0  0  0  0  0  0  0  0  0  0  0
    0.3040    0.1320    0.2480 C   0  0  1  0  0  0  0  0  0  0  0  0
    7.9370    0.5550    0.6190 C   0  0  0  0  0  0  0  0  0  0  0  0
    6.5870    0.2830   -1.3960 C   0  0  0  0  0  0  0  0  0  0  0  0
    0.2660    1.5480    0.8270 C   0  0  0  0  0  0  0  0  0  0  0  0
    1.4040    1.7160    1.8360 C   0  0  0  0  0  0  0  0  0  0  0  0
    1.4440    3.1660    2.3220 C   0  0  0  0  0  0  0  0  0  0  0  0
    1.1720    0.7850    3.0270 C   0  0  0  0  0  0  0  0  0  0  0  0
   -0.8870   -0.0750   -0.6520 C   0  0  0  0  0  0  0  0  0  0  0  0
   -3.2930   -0.1600   -1.0300 C   0  0  2  0  0  0  0  0  0  0  0  0
   -4.4420   -0.7660   -0.2230 C   0  0  0  0  0  0  0  0  0  0  0  0
    1.5360   -0.0470   -0.5250 N   0  0  0  0  0  0  0  0  0  0  0  0
   -2.1350    0.0410   -0.1550 N   0  0  0  0  0  0  0  0  0  0  0  0
   -5.3560   -4.0600    0.6860 N   0  0  0  0  0  0  0  0  0  0  0  0
    2.6800   -0.5900    1.3000 O   0  0  0  0  0  0  0  0  0  0  0  0
   -5.8030   -2.2120    1.9260 O   0  0  0  0  0  0  0  0  0  0  0  0
   -2.7010    1.6960   -2.4600 O   0  0  0  0  0  0  0  0  0  0  0  0
   -0.7230   -0.3440   -1.8230 O   0  0  0  0  0  0  0  0  0  0  0  0
    3.8070   -0.5740   -0.6120 O   0  0  0  0  0  0  0  0  0  0  0  0
    8.6470    1.2270   -1.3970 H   0  0  0  0  0  0  0  0  0  0  0  0
   -4.0390    2.3570   -0.2620 S   0  0  0  0  0  0  0  0  0  0  0  0
   -4.6450    1.0500   -2.1910 H   0  0  0  0  0  0  0  0  0  0  0  0
   -2.8140   -3.2160   -1.2090 H   0  0  0  0  0  0  0  0  0  0  0  0
   -4.9340   -5.0050   -1.1510 H   0  0  0  0  0  0  0  0  0  0  0  0
   -3.6040   -5.0440    0.0430 H   0  0  0  0  0  0  0  0  0  0  0  0
    5.9220   -1.7840   -1.6560 H   0  0  0  0  0  0  0  0  0  0  0  0
    4.8190   -1.9220    0.6180 H   0  0  0  0  0  0  0  0  0  0  0  0
    5.2270   -0.2080    0.8730 H   0  0  0  0  0  0  0  0  0  0  0  0
   -3.1310   -2.1160    0.8510 H   0  0  0  0  0  0  0  0  0  0  0  0
    7.4870   -2.6580    0.1530 H   0  0  0  0  0  0  0  0  0  0  0  0
    8.4950   -1.4130   -2.0500 H   0  0  0  0  0  0  0  0  0  0  0  0
    9.5720   -1.1630   -0.6180 H   0  0  0  0  0  0  0  0  0  0  0  0
    7.4190   -0.8660    2.1300 H   0  0  0  0  0  0  0  0  0  0  0  0
    0.2760   -0.5940    1.0600 H   0  0  0  0  0  0  0  0  0  0  0  0
    8.1090    1.4440    1.2080 H   0  0  0  0  0  0  0  0  0  0  0  0
    5.9530    1.0660   -0.9800 H   0  0  0  0  0  0  0  0  0  0  0  0
    6.5420    0.2890   -2.4850 H   0  0  0  0  0  0  0  0  0  0  0  0
    0.3840    2.2730    0.0220 H   0  0  0  0  0  0  0  0  0  0  0  0
   -0.6890    1.7100    1.3270 H   0  0  0  0  0  0  0  0  0  0  0  0
    2.3520    1.4670    1.3590 H   0  0  0  0  0  0  0  0  0  0  0  0
    0.4960    3.4160    2.7990 H   0  0  0  0  0  0  0  0  0  0  0  0
    2.2540    3.2870    3.0410 H   0  0  0  0  0  0  0  0  0  0  0  0
    1.6090    3.8300    1.4740 H   0  0  0  0  0  0  0  0  0  0  0  0
    1.1440   -0.2480    2.6810 H   0  0  0  0  0  0  0  0  0  0  0  0
    1.9830    0.9050    3.7460 H   0  0  0  0  0  0  0  0  0  0  0  0
    0.2240    1.0340    3.5040 H   0  0  0  0  0  0  0  0  0  0  0  0
   -3.0220   -0.8360   -1.8410 H   0  0  0  0  0  0  0  0  0  0  0  0
   -5.3300   -0.8370   -0.8520 H   0  0  0  0  0  0  0  0  0  0  0  0
   -4.6570   -0.1310    0.6370 H   0  0  0  0  0  0  0  0  0  0  0  0
    1.5330    0.0970   -1.4840 H   0  0  0  0  0  0  0  0  0  0  0  0
   -2.2660    0.2570    0.7810 H   0  0  0  0  0  0  0  0  0  0  0  0
   -6.0280   -4.6490    1.0640 H   0  0  0  0  0  0  0  0  0  0  0  0
   -1.8570    1.8410   -2.0110 H   0  0  0  0  0  0  0  0  0  0  0  0
   -5.1850    1.9690    0.4840 O   0  0  0  0  0  0  0  0  0  0  0  0
   -2.8230    2.6980    0.3890 O   0  0  0  0  0  0  0  0  0  0  0  0
   -4.4640    3.6400   -0.9620 O   0  0  0  0  0  0  0  0  0  0  0  0
   -4.4560   -2.7880   -1.7960 H   0  0  0  0  0  0  0  0  0  0  0  0
   -4.6650    4.3690   -0.3590 H   0  0  0  0  0  0  0  0  0  0  0  0
  1 11  1  0  0  0  0
 10 11  1  0  0  0  0
  9 27  2  0  0  0  0
  1 15  1  0  0  0  0
  1 14  1  0  0  0  0
  5 10  1  0  0  0  0
 10 12  1  0  0  0  0
  5 15  1  0  0  0  0
  5  6  1  0  0  0  0
  9 25  1  0  0  0  0
  8  9  1  0  0  0  0
  4 25  1  0  0  0  0
 12 14  2  0  0  0  0
  7 26  2  0  0  0  0
  8 22  1  0  0  0  0
  3  8  1  0  0  0  0
  6 30  1  0  0  0  0
  7 30  1  0  0  0  0
  7 23  1  0  0  0  0
  3  4  1  0  0  0  0
 17 19  1  0  0  0  0
 21 22  1  0  0  0  0
 13 23  1  0  0  0  0
 13 20  1  0  0  0  0
 13 16  1  0  0  0  0
 21 24  1  0  0  0  0
 20 24  1  0  0  0  0
  2 21  1  0  0  0  0
 16 17  1  0  0  0  0
 17 18  1  0  0  0  0
 20 29  2  0  0  0  0
  2 28  1  0  0  0  0
  1 31  1  0  0  0  0
  2 32  1  0  0  0  0
  2 33  1  0  0  0  0
  3 34  1  0  0  0  0
  4 35  1  0  0  0  0
  4 36  1  0  0  0  0
  5 37  1  0  0  0  0
  6 38  1  0  0  0  0
  6 39  1  0  0  0  0
  8 40  1  0  0  0  0
 10 41  1  0  0  0  0
 11 42  1  0  0  0  0
 11 43  1  0  0  0  0
 12 44  1  0  0  0  0
 13 45  1  0  0  0  0
 14 46  1  0  0  0  0
 15 47  1  0  0  0  0
 15 48  1  0  0  0  0
 16 49  1  0  0  0  0
 16 50  1  0  0  0  0
 17 51  1  0  0  0  0
 18 52  1  0  0  0  0
 18 53  1  0  0  0  0
 18 54  1  0  0  0  0
 19 55  1  0  0  0  0
 19 56  1  0  0  0  0
 19 57  1  0  0  0  0
 21 58  1  0  0  0  0
 22 59  1  0  0  0  0
 22 60  1  0  0  0  0
 23 61  1  0  0  0  0
 24 62  1  0  0  0  0
 25 63  1  0  0  0  0
 28 64  1  0  0  0  0
 32 65  2  0  0  0  0
 32 66  2  0  0  0  0
 32 67  1  0  0  0  0
  3 68  1  0  0  0  0
 67 69  1  0  0  0  0
M  END
> <OPENEYE_ISO_SMILES>
CC(C)C[C@@H](C(=O)N[C@@H](C[C@@H]1CCNC1=O)[C@H](O)S(=O)(=O)O)NC(=O)OC[C@H]2C[C@@H]3C[C@H]2C=C3

> <OPENEYE_INCHI>
InChI=1S/C22H35N3O8S/c1-12(2)7-17(25-22(29)33-11-16-9-13-3-4-14(16)8-13)20(27)24-18(21(28)34(30,31)32)10-15-5-6-23-19(15)26/h3-4,12-18,21,28H,5-11H2,1-2H3,(H,23,26)(H,24,27)(H,25,29)(H,30,31,32)/t13-,14+,15-,16+,17-,18-,21+/m0/s1

> <OPENEYE_INCHIKEY>
WZJYVJHLXCYWFV-NFFJHMNLSA-N

> <FORMULA>
C22H35N3O8S

$$$$
