Y71
  -OEChem-02242320043D

 69 71  0     1  0  0  0  0  0999 V2000
   -2.7600   -0.4330   -0.0600 C   0  0  0  0  0  0  0  0  0  0  0  0
    4.0950   -2.0860   -0.3120 C   0  0  1  0  0  0  0  0  0  0  0  0
    5.2580   -2.6280   -1.1130 C   0  0  0  0  0  0  0  0  0  0  0  0
    4.5930   -4.3520    0.2950 C   0  0  0  0  0  0  0  0  0  0  0  0
    3.9620   -3.0670    0.8760 C   0  0  0  0  0  0  0  0  0  0  0  0
    3.5770    1.2040    1.6180 C   0  0  1  0  0  0  0  0  0  0  0  0
   -5.0840   -0.9750   -0.0340 C   0  0  0  0  0  0  0  0  0  0  0  0
   -6.2540   -1.0430    0.9500 C   0  0  2  0  0  0  0  0  0  0  0  0
   -7.5390   -1.5740    0.2380 C   0  0  1  0  0  0  0  0  0  0  0  0
   -8.6520   -0.9430    1.1520 C   0  0  0  0  0  0  0  0  0  0  0  0
   -7.6780   -0.6780   -0.9990 C   0  0  0  0  0  0  0  0  0  0  0  0
   -0.3870    0.0830   -0.2610 C   0  0  1  0  0  0  0  0  0  0  0  0
   -8.0190    0.5320   -0.6000 C   0  0  0  0  0  0  0  0  0  0  0  0
   -8.1320    0.5240    0.9290 C   0  0  2  0  0  0  0  0  0  0  0  0
   -6.6530    0.3770    1.4210 C   0  0  0  0  0  0  0  0  0  0  0  0
   -0.3450    1.4590   -0.9290 C   0  0  0  0  0  0  0  0  0  0  0  0
   -1.4900    1.5710   -1.9370 C   0  0  0  0  0  0  0  0  0  0  0  0
   -1.5250    2.9880   -2.5140 C   0  0  0  0  0  0  0  0  0  0  0  0
   -1.2730    0.5660   -3.0690 C   0  0  0  0  0  0  0  0  0  0  0  0
    0.8100   -0.0750    0.6410 C   0  0  0  0  0  0  0  0  0  0  0  0
    3.2180   -0.1520    1.0050 C   0  0  2  0  0  0  0  0  0  0  0  0
    4.4040   -0.6740    0.1920 C   0  0  0  0  0  0  0  0  0  0  0  0
   -1.6140   -0.0390    0.5300 N   0  0  0  0  0  0  0  0  0  0  0  0
    2.0550    0.0010    0.1280 N   0  0  0  0  0  0  0  0  0  0  0  0
    5.5190   -3.8960   -0.7490 N   0  0  0  0  0  0  0  0  0  0  0  0
   -2.7740   -0.6930   -1.2470 O   0  0  0  0  0  0  0  0  0  0  0  0
    5.8670   -2.0100   -1.9600 O   0  0  0  0  0  0  0  0  0  0  0  0
    4.7800    1.0790    2.3800 O   0  0  0  0  0  0  0  0  0  0  0  0
    0.6540   -0.2690    1.8280 O   0  0  0  0  0  0  0  0  0  0  0  0
   -3.8870   -0.5450    0.6680 O   0  0  0  0  0  0  0  0  0  0  0  0
    3.1840   -2.0850   -0.9100 H   0  0  0  0  0  0  0  0  0  0  0  0
    5.1370   -4.8890    1.0720 H   0  0  0  0  0  0  0  0  0  0  0  0
    3.8220   -4.9900   -0.1350 H   0  0  0  0  0  0  0  0  0  0  0  0
    4.5240   -2.7120    1.7400 H   0  0  0  0  0  0  0  0  0  0  0  0
    2.9150   -3.2280    1.1330 H   0  0  0  0  0  0  0  0  0  0  0  0
    2.7670    1.5340    2.2680 H   0  0  0  0  0  0  0  0  0  0  0  0
    3.8240    2.4190    0.2940 S   0  0  0  0  0  0  0  0  0  0  0  0
   -4.9160   -1.9610   -0.4680 H   0  0  0  0  0  0  0  0  0  0  0  0
   -5.3160   -0.2640   -0.8260 H   0  0  0  0  0  0  0  0  0  0  0  0
   -6.0010   -1.6730    1.8020 H   0  0  0  0  0  0  0  0  0  0  0  0
   -7.5850   -2.6490    0.0630 H   0  0  0  0  0  0  0  0  0  0  0  0
   -9.6550   -1.0950    0.7530 H   0  0  0  0  0  0  0  0  0  0  0  0
   -8.5700   -1.2610    2.1910 H   0  0  0  0  0  0  0  0  0  0  0  0
   -7.5220   -0.9850   -2.0220 H   0  0  0  0  0  0  0  0  0  0  0  0
   -0.3700   -0.6930   -1.0260 H   0  0  0  0  0  0  0  0  0  0  0  0
   -8.1910    1.3830   -1.2420 H   0  0  0  0  0  0  0  0  0  0  0  0
   -8.7140    1.3240    1.3860 H   0  0  0  0  0  0  0  0  0  0  0  0
   -6.6010    0.4520    2.5070 H   0  0  0  0  0  0  0  0  0  0  0  0
   -6.0160    1.1280    0.9520 H   0  0  0  0  0  0  0  0  0  0  0  0
   -0.4520    2.2340   -0.1700 H   0  0  0  0  0  0  0  0  0  0  0  0
    0.6070    1.5840   -1.4440 H   0  0  0  0  0  0  0  0  0  0  0  0
   -2.4360    1.3590   -1.4390 H   0  0  0  0  0  0  0  0  0  0  0  0
   -0.5790    3.2010   -3.0120 H   0  0  0  0  0  0  0  0  0  0  0  0
   -2.3400    3.0690   -3.2320 H   0  0  0  0  0  0  0  0  0  0  0  0
   -1.6790    3.7050   -1.7070 H   0  0  0  0  0  0  0  0  0  0  0  0
   -0.3270    0.7780   -3.5680 H   0  0  0  0  0  0  0  0  0  0  0  0
   -1.2480   -0.4440   -2.6590 H   0  0  0  0  0  0  0  0  0  0  0  0
   -2.0890    0.6460   -3.7880 H   0  0  0  0  0  0  0  0  0  0  0  0
    2.9830   -0.8590    1.8010 H   0  0  0  0  0  0  0  0  0  0  0  0
    5.2930   -0.7000    0.8220 H   0  0  0  0  0  0  0  0  0  0  0  0
    4.5800   -0.0150   -0.6580 H   0  0  0  0  0  0  0  0  0  0  0  0
   -1.6010    0.1640    1.4790 H   0  0  0  0  0  0  0  0  0  0  0  0
    2.1800    0.1570   -0.8210 H   0  0  0  0  0  0  0  0  0  0  0  0
    6.2270   -4.4390   -1.1280 H   0  0  0  0  0  0  0  0  0  0  0  0
    5.5440    0.7870    1.8640 H   0  0  0  0  0  0  0  0  0  0  0  0
    4.2950    3.6740    1.0140 O   0  0  0  0  0  0  0  0  0  0  0  0
    4.9260    2.0490   -0.5240 O   0  0  0  0  0  0  0  0  0  0  0  0
    2.5780    2.7910   -0.2800 O   0  0  0  0  0  0  0  0  0  0  0  0
    4.4700    4.4220    0.4260 H   0  0  0  0  0  0  0  0  0  0  0  0
 10 14  1  0  0  0  0
  9 10  1  0  0  0  0
  3 27  2  0  0  0  0
 14 15  1  0  0  0  0
 13 14  1  0  0  0  0
  8  9  1  0  0  0  0
  9 11  1  0  0  0  0
  8 15  1  0  0  0  0
  7  8  1  0  0  0  0
  3 25  1  0  0  0  0
  2  3  1  0  0  0  0
  4 25  1  0  0  0  0
 11 13  2  0  0  0  0
  1 26  2  0  0  0  0
  2 22  1  0  0  0  0
  2  5  1  0  0  0  0
  1 30  1  0  0  0  0
  1 23  1  0  0  0  0
  7 30  1  0  0  0  0
  4  5  1  0  0  0  0
 17 19  1  0  0  0  0
 21 22  1  0  0  0  0
 12 23  1  0  0  0  0
 12 20  1  0  0  0  0
 12 16  1  0  0  0  0
 21 24  1  0  0  0  0
 20 24  1  0  0  0  0
  6 21  1  0  0  0  0
 16 17  1  0  0  0  0
 17 18  1  0  0  0  0
 20 29  2  0  0  0  0
  6 28  1  0  0  0  0
  2 31  1  0  0  0  0
  4 32  1  0  0  0  0
  4 33  1  0  0  0  0
  5 34  1  0  0  0  0
  5 35  1  0  0  0  0
  6 36  1  0  0  0  0
  6 37  1  0  0  0  0
  7 38  1  0  0  0  0
  7 39  1  0  0  0  0
  8 40  1  0  0  0  0
  9 41  1  0  0  0  0
 10 42  1  0  0  0  0
 10 43  1  0  0  0  0
 11 44  1  0  0  0  0
 12 45  1  0  0  0  0
 13 46  1  0  0  0  0
 14 47  1  0  0  0  0
 15 48  1  0  0  0  0
 15 49  1  0  0  0  0
 16 50  1  0  0  0  0
 16 51  1  0  0  0  0
 17 52  1  0  0  0  0
 18 53  1  0  0  0  0
 18 54  1  0  0  0  0
 18 55  1  0  0  0  0
 19 56  1  0  0  0  0
 19 57  1  0  0  0  0
 19 58  1  0  0  0  0
 21 59  1  0  0  0  0
 22 60  1  0  0  0  0
 22 61  1  0  0  0  0
 23 62  1  0  0  0  0
 24 63  1  0  0  0  0
 25 64  1  0  0  0  0
 28 65  1  0  0  0  0
 37 66  1  0  0  0  0
 37 67  2  0  0  0  0
 37 68  2  0  0  0  0
 66 69  1  0  0  0  0
M  END
> <OPENEYE_ISO_SMILES>
CC(C)C[C@@H](C(=O)N[C@@H](C[C@@H]1CCNC1=O)[C@@H](O)S(=O)(=O)O)NC(=O)OC[C@H]2C[C@@H]3C[C@H]2C=C3

> <OPENEYE_INCHI>
InChI=1S/C22H35N3O8S/c1-12(2)7-17(25-22(29)33-11-16-9-13-3-4-14(16)8-13)20(27)24-18(21(28)34(30,31)32)10-15-5-6-23-19(15)26/h3-4,12-18,21,28H,5-11H2,1-2H3,(H,23,26)(H,24,27)(H,25,29)(H,30,31,32)/t13-,14+,15-,16+,17-,18-,21-/m0/s1

> <OPENEYE_INCHIKEY>
WZJYVJHLXCYWFV-JBKSVKCVSA-N

> <FORMULA>
C22H35N3O8S

$$$$
