@<TRIPOS>MOLECULE
/home/pku/3cl/gett_pdb/7LB7/7LB7_mol2/ligand/7LB7_SV6.pdb
 103 107 0 0 0
SMALL
GASTEIGER

@<TRIPOS>ATOM
      1  CBN       11.5910    8.5270   26.7020 C.ar  401  SV6401      0.1433
      2  CBO       11.6460   10.3380   28.2000 C.ar  401  SV6401      0.0465
      3  CBP       12.2530    9.5090   29.1780 C.ar  401  SV6401      0.0457
      4  CBB       11.2380    7.9940   25.3280 C.2   401  SV6401      0.2645
      5  CBQ       12.1910    7.6950   27.6940 C.ar  401  SV6401      0.0580
      6  OBW       11.0540    8.7320   24.3640 O.2   401  SV6401     -0.2685
      7  NAF       11.3340    9.8500   26.9510 N.ar  401  SV6401     -0.2473
      8  NAG       12.5060    8.1690   28.9280 N.ar  401  SV6401     -0.2595
      9  NAD       11.2260    6.6520   25.2980 N.am  401  SV6401     -0.2985
     10  CAY       10.9760    5.7200   24.1880 C.3   401  SV6401      0.1025
     11  CAX       10.1270    4.5380   24.6820 C.2   401  SV6401      0.2342
     12  OBU       10.4230    3.9650   25.7410 O.2   401  SV6401     -0.2738
     13  CBH       12.3800    5.2240   23.7750 C.3   401  SV6401     -0.0141
     14  CBI       13.2460    6.4060   23.2240 C.3   401  SV6401     -0.0481
     15  CBJ       14.6440    5.9460   22.8440 C.3   401  SV6401     -0.0527
     16  CBK       14.5780    4.8550   21.8070 C.3   401  SV6401     -0.0530
     17  CBL       13.7490    3.6750   22.3100 C.3   401  SV6401     -0.0527
     18  CBM       12.3250    4.1360   22.6850 C.3   401  SV6401     -0.0481
     19  NAC        9.0660    4.1760   23.9290 N.am  401  SV6401     -0.3020
     20  CAW        8.2030    3.0600   24.3110 C.3   401  SV6401      0.1045
     21  CAZ        6.6630    3.3890   24.2330 C.3   401  SV6401     -0.0108
     22  CBC        6.2130    3.7510   22.7950 C.3   401  SV6401     -0.0579
     23  CBD        6.3640    4.5770   25.1450 C.3   401  SV6401     -0.0579
     24  CBA        5.8910    2.1340   24.6970 C.3   401  SV6401     -0.0579
     25  CAV        8.6210    1.8210   23.4480 C.2   401  SV6401      0.2370
     26  OBT        8.2510    1.7080   22.2400 O.2   401  SV6401     -0.2735
     27  C          8.3770   -1.1490   23.1380 C.2   401  SV6401      0.2342
     28  N          9.3720    0.8240   24.0400 N.am  401  SV6401     -0.2878
     29  O          7.7580   -1.4730   24.1900 O.2   401  SV6401     -0.2738
     30  CA         9.7270   -0.3690   23.2520 C.3   401  SV6401      0.1053
     31  CB        10.6630   -1.2040   24.1250 C.3   401  SV6401     -0.0096
     32  CG        10.9810   -0.3490   25.4000 C.3   401  SV6401     -0.0202
     33  CBE       12.0470   -1.4920   23.4790 C.3   401  SV6401     -0.0478
     34  CBF       12.9520   -0.3300   23.9000 C.3   401  SV6401     -0.0524
     35  CD1        9.9350    0.7640   25.4130 C.3   401  SV6401      0.0187
     36  CD2       12.4140    0.1860   25.2410 C.3   401  SV6401     -0.0485
     37  NAA        4.9890   -4.9740   22.3420 N.am  401  SV6401     -0.3099
     38  NAE        7.8750   -1.4670   21.9430 N.am  401  SV6401     -0.3076
     39  CAH        6.5640   -2.2400   21.7890 C.3   401  SV6401      0.0638
     40  CAI        6.7060   -3.6670   21.1890 C.3   401  SV6401      0.1987
     41  CAJ        5.5860   -1.3510   21.0250 C.3   401  SV6401     -0.0315
     42  CAK        5.1750   -0.0920   21.7940 C.3   401  SV6401     -0.0541
     43  CAL        4.1850    0.7940   21.0430 C.3   401  SV6401     -0.0652
     44  CAM        5.2930   -4.3280   21.1730 C.2   401  SV6401      0.2503
     45  CAN        3.7280   -5.6450   22.5740 C.3   401  SV6401      0.0233
     46  CAO        3.3230   -5.9460   23.9920 C.3   401  SV6401     -0.0328
     47  CAP        2.6200   -4.8540   23.2080 C.3   401  SV6401     -0.0328
     48  OBR        7.5540   -4.4520   22.0160 O.3   401  SV6401     -0.3749
     49  OBS        4.5230   -4.2560   20.1910 O.2   401  SV6401     -0.2725
     50  HBQ       12.3980    6.6430   27.4950 H     401  SV6401      0.0853
     51  HBO       11.4450   11.3860   28.3940 H     401  SV6401      0.0845
     52  HBP       12.4980    9.8930   30.1600 H     401  SV6401      0.0845
     53 DNAD       11.4050    6.1930   26.1790 H     401  SV6401      0.1498
     54  HAY       10.5650    6.1580   23.2760 H     401  SV6401      0.0597
     55  HBH       12.8600    4.7830   24.6640 H     401  SV6401      0.0323
     56  HBI       13.3250    7.2000   23.9870 H     401  SV6401      0.0269
     57 HBIA       12.7450    6.8320   22.3440 H     401  SV6401      0.0269
     58  HBJ       15.1210    5.5350   23.7500 H     401  SV6401      0.0265
     59 HBJA       15.2370    6.7870   22.4760 H     401  SV6401      0.0265
     60  HBK       15.6060    4.5180   21.5540 H     401  SV6401      0.0265
     61 HBKA       14.1130    5.2530   20.8920 H     401  SV6401      0.0265
     62  HBL       14.2200    3.2650   23.2260 H     401  SV6401      0.0265
     63 HBLA       13.7080    2.8940   21.5540 H     401  SV6401      0.0265
     64  HBM       11.8430    4.5600   21.7790 H     401  SV6401      0.0269
     65 HBMA       11.7290    3.2860   23.0290 H     401  SV6401      0.0269
     66 DNAC        8.8640    4.6640   23.0620 H     401  SV6401      0.1495
     67  HAW        8.4250    2.8430   25.3560 H     401  SV6401      0.0600
     68  HBC        6.7290    4.6310   22.4080 H     401  SV6401      0.0236
     69 HBCA        6.4110    2.9210   22.1030 H     401  SV6401      0.0236
     70 HBCB        5.1380    3.9660   22.7850 H     401  SV6401      0.0236
     71  HBD        6.8990    5.4680   24.8240 H     401  SV6401      0.0236
     72 HBDA        5.2950    4.8100   25.1120 H     401  SV6401      0.0236
     73 HBDB        6.6510    4.3700   26.1730 H     401  SV6401      0.0236
     74  HBA        4.8170    2.3140   24.6760 H     401  SV6401      0.0236
     75 HBAA        6.1730    1.8560   25.7240 H     401  SV6401      0.0236
     76 HBAB        6.0930    1.2750   24.0500 H     401  SV6401      0.0236
     77  HA        10.1330   -0.1340   22.2670 H     401  SV6401      0.0599
     78  HB        10.2010   -2.1550   24.4060 H     401  SV6401      0.0327
     79  HG        10.8720   -0.9690   26.2930 H     401  SV6401      0.0319
     80  HBE       11.9240   -1.4630   22.3800 H     401  SV6401      0.0269
     81 HBEA       12.4560   -2.4730   23.7420 H     401  SV6401      0.0269
     82  HBF       13.9950   -0.6860   24.0200 H     401  SV6401      0.0265
     83 HBFA       12.9430    0.4630   23.1370 H     401  SV6401      0.0265
     84  HD1        9.1300    0.4980   26.1250 H     401  SV6401      0.0467
     85 HD1A       10.3600    1.7340   25.6970 H     401  SV6401      0.0467
     86  HD2       13.0310   -0.1960   26.0670 H     401  SV6401      0.0269
     87 HD2A       12.4330    1.2760   25.2960 H     401  SV6401      0.0269
     88 DNAA        5.6980   -4.9650   23.0690 H     401  SV6401      0.1491
     89 DNAE        8.4020   -1.1850   21.1210 H     401  SV6401      0.1491
     90  HAH        6.1350   -2.4460   22.7660 H     401  SV6401      0.0533
     91  HAJ        4.6640   -1.9270   20.8860 H     401  SV6401      0.0284
     92 HAJA        6.0100   -1.1170   20.0340 H     401  SV6401      0.0284
     93  HAK        6.0830    0.5170   21.9740 H     401  SV6401      0.0263
     94 HAKA        4.7530   -0.3960   22.7680 H     401  SV6401      0.0263
     95  HAL        4.6960    1.6450   20.5530 H     401  SV6401      0.0230
     96 HALA        3.6950    0.1960   20.2720 H     401  SV6401      0.0230
     97 HALB        3.4090    1.2030   21.6910 H     401  SV6401      0.0230
     98  HAN        3.4740   -6.3840   21.8210 H     401  SV6401      0.0498
     99  HAO        4.0130   -5.6430   24.7770 H     401  SV6401      0.0284
    100 HAOA        2.8070   -6.8790   24.1810 H     401  SV6401      0.0284
    101  HAP        1.6100   -5.0290   22.8580 H     401  SV6401      0.0284
    102 HAPA        2.8500   -3.8360   23.4830 H     401  SV6401      0.0284
    103 DOBR        8.3870   -3.9410   22.2180 H     401  SV6401      0.2110
@<TRIPOS>BOND
     1    92    41    1
     2    49    44    2
     3    96    43    1
     4    95    43    1
     5    91    41    1
     6    61    16    1
     7    41    39    1
     8    41    42    1
     9    43    97    1
    10    43    42    1
    11    89    38    1
    12    44    40    1
    13    44    37   am
    14    40    39    1
    15    40    48    1
    16    60    16    1
    17    63    17    1
    18    64    18    1
    19    39    38    1
    20    39    90    1
    21    42    93    1
    22    42    94    1
    23    16    17    1
    24    16    15    1
    25    98    45    1
    26    38    27   am
    27    48   103    1
    28    69    22    1
    29    26    25    2
    30    77    30    1
    31    17    18    1
    32    17    62    1
    33    37    45    1
    34    37    88    1
    35    57    14    1
    36    80    33    1
    37    68    22    1
    38    59    15    1
    39    45    47    1
    40    45    46    1
    41    18    65    1
    42    18    13    1
    43    70    22    1
    44    22    21    1
    45    15    14    1
    46    15    58    1
    47   101    47    1
    48    66    19    1
    49    83    34    1
    50    27    30    1
    51    27    29    2
    52    47   102    1
    53    47    46    1
    54    14    13    1
    55    14    56    1
    56    30    28    1
    57    30    31    1
    58    54    10    1
    59    25    28   am
    60    25    20    1
    61    33    81    1
    62    33    34    1
    63    33    31    1
    64    13    10    1
    65    13    55    1
    66    34    82    1
    67    34    36    1
    68    19    20    1
    69    19    11   am
    70    46   100    1
    71    46    99    1
    72    28    35    1
    73    76    24    1
    74    31    78    1
    75    31    32    1
    76    10    11    1
    77    10     9    1
    78    21    20    1
    79    21    24    1
    80    21    23    1
    81    20    67    1
    82     6     4    2
    83    74    24    1
    84    11    12    2
    85    24    75    1
    86    71    23    1
    87    72    23    1
    88    23    73    1
    89    36    87    1
    90    36    32    1
    91    36    86    1
    92     9     4   am
    93     9    53    1
    94     4     1    1
    95    32    35    1
    96    32    79    1
    97    35    85    1
    98    35    84    1
    99     1     7   ar
   100     1     5   ar
   101     7     2   ar
   102    50     5    1
   103     5     8   ar
   104     2    51    1
   105     2     3   ar
   106     8     3   ar
   107     3    52    1
