YKS
  -OEChem-02242320043D

 83 85  0     1  0  0  0  0  0999 V2000
    3.6450    0.5880   -0.0260 C   0  0  1  0  0  0  0  0  0  0  0  0
    4.5980    0.3650    1.1490 C   0  0  0  0  0  0  0  0  0  0  0  0
    3.8560    0.6200    2.4630 C   0  0  1  0  0  0  0  0  0  0  0  0
    4.7780    0.4020    3.6420 C   0  0  0  0  0  0  0  0  0  0  0  0
    3.4460    2.1070    2.5730 C   0  0  0  0  0  0  0  0  0  0  0  0
    4.4230    0.4930   -1.3400 C   0  0  2  0  0  0  0  0  0  0  0  0
   -3.7750    1.3190    0.2080 C   0  0  1  0  0  0  0  0  0  0  0  0
   -1.7840    0.0680   -0.1980 C   0  0  0  0  0  0  0  0  0  0  0  0
    0.2840   -1.1970   -0.4430 C   0  0  1  0  0  0  0  0  0  0  0  0
    0.7220   -2.3950   -1.2890 C   0  0  0  0  0  0  0  0  0  0  0  0
   -0.3080   -3.5180   -1.1550 C   0  0  0  0  0  0  0  0  0  0  0  0
   -1.6280   -3.0780   -1.7940 C   0  0  0  0  0  0  0  0  0  0  0  0
    0.2090   -4.7710   -1.8640 C   0  0  0  0  0  0  0  0  0  0  0  0
    1.3620   -0.1450   -0.4650 C   0  0  0  0  0  0  0  0  0  0  0  0
    3.6350    2.3760    4.0820 C   0  0  0  0  0  0  0  0  0  0  0  0
   -4.4470    2.4290   -0.6030 C   0  0  0  0  0  0  0  0  0  0  0  0
   -3.3940    3.3530   -1.1580 C   0  0  0  0  0  0  0  0  0  0  0  0
   -2.9800    4.4490   -0.4250 C   0  0  0  0  0  0  0  0  0  0  0  0
   -2.0140    5.2970   -0.9350 C   0  0  0  0  0  0  0  0  0  0  0  0
   -1.4620    5.0480   -2.1770 C   0  0  0  0  0  0  0  0  0  0  0  0
   -1.8750    3.9510   -2.9100 C   0  0  0  0  0  0  0  0  0  0  0  0
   -2.8380    3.1010   -2.3990 C   0  0  0  0  0  0  0  0  0  0  0  0
   -4.8470    0.4540    0.8740 C   0  0  0  0  0  0  0  0  0  0  0  0
   -4.1790   -0.5610    1.8030 C   0  0  0  0  0  0  0  0  0  0  0  0
   -5.2510   -1.4260    2.4700 C   0  0  0  0  0  0  0  0  0  0  0  0
   -6.0490   -2.1660    1.3950 C   0  0  0  0  0  0  0  0  0  0  0  0
   -6.7180   -1.1510    0.4660 C   0  0  0  0  0  0  0  0  0  0  0  0
   -5.6460   -0.2860   -0.2000 C   0  0  0  0  0  0  0  0  0  0  0  0
   -7.0290   -2.9570    2.0040 F   0  0  0  0  0  0  0  0  0  0  0  0
   -5.1880   -2.9810    0.6530 F   0  0  0  0  0  0  0  0  0  0  0  0
   -0.9540   -0.6390   -0.9910 N   0  0  0  0  0  0  0  0  0  0  0  0
    2.5960   -0.4350   -0.0050 N   0  0  0  0  0  0  0  0  0  0  0  0
    4.6380    1.4020    4.5300 N   0  0  0  0  0  0  0  0  0  0  0  0
   -1.4630    0.3200    0.9460 O   0  0  0  0  0  0  0  0  0  0  0  0
    5.5340   -0.5380    3.7690 O   0  0  0  0  0  0  0  0  0  0  0  0
    3.5580    0.8150   -2.4310 O   0  0  0  0  0  0  0  0  0  0  0  0
    1.1210    0.9620   -0.8960 O   0  0  0  0  0  0  0  0  0  0  0  0
   -2.9690    0.4950   -0.6740 O   0  0  0  0  0  0  0  0  0  0  0  0
    3.1910    1.5760    0.0560 H   0  0  0  0  0  0  0  0  0  0  0  0
    4.9630   -0.6620    1.1320 H   0  0  0  0  0  0  0  0  0  0  0  0
    5.4410    1.0520    1.0690 H   0  0  0  0  0  0  0  0  0  0  0  0
    2.9800   -0.0240    2.5370 H   0  0  0  0  0  0  0  0  0  0  0  0
    4.1050    2.7390    1.9780 H   0  0  0  0  0  0  0  0  0  0  0  0
    2.4050    2.2470    2.2790 H   0  0  0  0  0  0  0  0  0  0  0  0
    5.0550   -1.1950   -1.5470 S   0  0  0  0  0  0  0  0  0  0  0  0
    5.2580    1.1930   -1.3190 H   0  0  0  0  0  0  0  0  0  0  0  0
   -3.1390    1.7630    0.9740 H   0  0  0  0  0  0  0  0  0  0  0  0
    0.1130   -1.5210    0.5840 H   0  0  0  0  0  0  0  0  0  0  0  0
    0.7970   -2.0930   -2.3340 H   0  0  0  0  0  0  0  0  0  0  0  0
    1.6930   -2.7490   -0.9420 H   0  0  0  0  0  0  0  0  0  0  0  0
   -0.4710   -3.7380   -0.1000 H   0  0  0  0  0  0  0  0  0  0  0  0
   -2.3230   -3.9170   -1.8030 H   0  0  0  0  0  0  0  0  0  0  0  0
   -2.0550   -2.2580   -1.2170 H   0  0  0  0  0  0  0  0  0  0  0  0
   -1.4440   -2.7470   -2.8160 H   0  0  0  0  0  0  0  0  0  0  0  0
    1.1490   -5.0840   -1.4090 H   0  0  0  0  0  0  0  0  0  0  0  0
   -0.5250   -5.5710   -1.7690 H   0  0  0  0  0  0  0  0  0  0  0  0
    0.3710   -4.5510   -2.9190 H   0  0  0  0  0  0  0  0  0  0  0  0
    3.9980    3.3910    4.2420 H   0  0  0  0  0  0  0  0  0  0  0  0
    2.6960    2.2240    4.6130 H   0  0  0  0  0  0  0  0  0  0  0  0
   -5.0130    1.9880   -1.4230 H   0  0  0  0  0  0  0  0  0  0  0  0
   -5.1220    2.9930    0.0420 H   0  0  0  0  0  0  0  0  0  0  0  0
   -3.4110    4.6440    0.5460 H   0  0  0  0  0  0  0  0  0  0  0  0
   -1.6910    6.1540   -0.3620 H   0  0  0  0  0  0  0  0  0  0  0  0
   -0.7070    5.7100   -2.5750 H   0  0  0  0  0  0  0  0  0  0  0  0
   -1.4440    3.7560   -3.8810 H   0  0  0  0  0  0  0  0  0  0  0  0
   -3.1580    2.2420   -2.9690 H   0  0  0  0  0  0  0  0  0  0  0  0
   -5.5180    1.0890    1.4530 H   0  0  0  0  0  0  0  0  0  0  0  0
   -3.5080   -1.1960    1.2250 H   0  0  0  0  0  0  0  0  0  0  0  0
   -3.6100   -0.0340    2.5690 H   0  0  0  0  0  0  0  0  0  0  0  0
   -4.7740   -2.1490    3.1320 H   0  0  0  0  0  0  0  0  0  0  0  0
   -5.9220   -0.7910    3.0480 H   0  0  0  0  0  0  0  0  0  0  0  0
   -7.2870   -1.6790   -0.2990 H   0  0  0  0  0  0  0  0  0  0  0  0
   -7.3890   -0.5160    1.0450 H   0  0  0  0  0  0  0  0  0  0  0  0
   -6.1220    0.4370   -0.8620 H   0  0  0  0  0  0  0  0  0  0  0  0
   -4.9750   -0.9210   -0.7790 H   0  0  0  0  0  0  0  0  0  0  0  0
   -1.1770   -0.7780   -1.9250 H   0  0  0  0  0  0  0  0  0  0  0  0
    2.7890   -1.3210    0.3400 H   0  0  0  0  0  0  0  0  0  0  0  0
    5.1350    1.4700    5.3600 H   0  0  0  0  0  0  0  0  0  0  0  0
    2.7920    0.2310   -2.5110 H   0  0  0  0  0  0  0  0  0  0  0  0
    6.0630   -1.4720   -0.5850 O   0  0  0  0  0  0  0  0  0  0  0  0
    3.9860   -2.1040   -1.7710 O   0  0  0  0  0  0  0  0  0  0  0  0
    5.8010   -1.1610   -2.8730 O   0  0  0  0  0  0  0  0  0  0  0  0
    6.2000   -2.0060   -3.1220 H   0  0  0  0  0  0  0  0  0  0  0  0
 26 30  1  0  0  0  0
  4 35  2  0  0  0  0
 26 29  1  0  0  0  0
 25 26  1  0  0  0  0
 26 27  1  0  0  0  0
 24 25  1  0  0  0  0
 23 24  1  0  0  0  0
  4 33  1  0  0  0  0
  3  4  1  0  0  0  0
 15 33  1  0  0  0  0
 27 28  1  0  0  0  0
 23 28  1  0  0  0  0
  7 23  1  0  0  0  0
  7 16  1  0  0  0  0
  7 38  1  0  0  0  0
  8 34  2  0  0  0  0
 16 17  1  0  0  0  0
  2  3  1  0  0  0  0
  3  5  1  0  0  0  0
  8 38  1  0  0  0  0
  8 31  1  0  0  0  0
  5 15  1  0  0  0  0
  1  2  1  0  0  0  0
 11 12  1  0  0  0  0
  9 31  1  0  0  0  0
  9 14  1  0  0  0  0
  9 10  1  0  0  0  0
 17 22  2  0  0  0  0
 17 18  1  0  0  0  0
 14 32  1  0  0  0  0
  1 32  1  0  0  0  0
 21 22  1  0  0  0  0
 14 37  2  0  0  0  0
  1  6  1  0  0  0  0
 10 11  1  0  0  0  0
 11 13  1  0  0  0  0
  6 36  1  0  0  0  0
 18 19  2  0  0  0  0
 20 21  2  0  0  0  0
 19 20  1  0  0  0  0
  1 39  1  0  0  0  0
  2 40  1  0  0  0  0
  2 41  1  0  0  0  0
  3 42  1  0  0  0  0
  5 43  1  0  0  0  0
  5 44  1  0  0  0  0
  6 45  1  0  0  0  0
  6 46  1  0  0  0  0
  7 47  1  0  0  0  0
  9 48  1  0  0  0  0
 10 49  1  0  0  0  0
 10 50  1  0  0  0  0
 11 51  1  0  0  0  0
 12 52  1  0  0  0  0
 12 53  1  0  0  0  0
 12 54  1  0  0  0  0
 13 55  1  0  0  0  0
 13 56  1  0  0  0  0
 13 57  1  0  0  0  0
 15 58  1  0  0  0  0
 15 59  1  0  0  0  0
 16 60  1  0  0  0  0
 16 61  1  0  0  0  0
 18 62  1  0  0  0  0
 19 63  1  0  0  0  0
 20 64  1  0  0  0  0
 21 65  1  0  0  0  0
 22 66  1  0  0  0  0
 23 67  1  0  0  0  0
 24 68  1  0  0  0  0
 24 69  1  0  0  0  0
 25 70  1  0  0  0  0
 25 71  1  0  0  0  0
 27 72  1  0  0  0  0
 27 73  1  0  0  0  0
 28 74  1  0  0  0  0
 28 75  1  0  0  0  0
 31 76  1  0  0  0  0
 32 77  1  0  0  0  0
 33 78  1  0  0  0  0
 36 79  1  0  0  0  0
 45 80  2  0  0  0  0
 45 81  2  0  0  0  0
 45 82  1  0  0  0  0
 82 83  1  0  0  0  0
M  END
> <OPENEYE_ISO_SMILES>
CC(C)C[C@@H](C(=O)N[C@@H](C[C@@H]1CCNC1=O)[C@H](O)S(=O)(=O)O)NC(=O)O[C@@H](Cc2ccccc2)C3CCC(CC3)(F)F

> <OPENEYE_INCHI>
InChI=1S/C28H41F2N3O8S/c1-17(2)14-21(25(35)32-22(26(36)42(38,39)40)16-20-10-13-31-24(20)34)33-27(37)41-23(15-18-6-4-3-5-7-18)19-8-11-28(29,30)12-9-19/h3-7,17,19-23,26,36H,8-16H2,1-2H3,(H,31,34)(H,32,35)(H,33,37)(H,38,39,40)/t20-,21-,22-,23-,26+/m0/s1

> <OPENEYE_INCHIKEY>
PDAAZWNVPCMYBL-NRAAZAKSSA-N

> <FORMULA>
C28H41F2N3O8S

$$$$
