YKV
  -OEChem-02242320043D

 83 85  0     1  0  0  0  0  0999 V2000
    3.8040   -0.5650   -0.2550 C   0  0  1  0  0  0  0  0  0  0  0  0
    4.8480   -0.4850    0.8610 C   0  0  0  0  0  0  0  0  0  0  0  0
    4.4480    0.6050    1.8570 C   0  0  1  0  0  0  0  0  0  0  0  0
    5.4680    0.7050    2.9700 C   0  0  0  0  0  0  0  0  0  0  0  0
    5.0060    2.8890    2.3300 C   0  0  0  0  0  0  0  0  0  0  0  0
    4.4870    1.9960    1.1820 C   0  0  0  0  0  0  0  0  0  0  0  0
   -3.1350    0.7380   -0.5990 O   0  0  0  0  0  0  0  0  0  0  0  0
   -4.2070    1.4070    0.1160 C   0  0  1  0  0  0  0  0  0  0  0  0
   -2.1080    0.2710    0.1370 C   0  0  0  0  0  0  0  0  0  0  0  0
    0.0330   -0.8750    0.3300 C   0  0  1  0  0  0  0  0  0  0  0  0
   -0.1120   -2.3980    0.3260 C   0  0  0  0  0  0  0  0  0  0  0  0
   -1.4060   -2.7890    1.0420 C   0  0  0  0  0  0  0  0  0  0  0  0
   -1.6220   -4.2980    0.9180 C   0  0  0  0  0  0  0  0  0  0  0  0
   -1.3070   -2.4070    2.5200 C   0  0  0  0  0  0  0  0  0  0  0  0
    1.3680   -0.4960   -0.2580 C   0  0  0  0  0  0  0  0  0  0  0  0
    4.2290   -1.6210   -1.2770 C   0  0  1  0  0  0  0  0  0  0  0  0
   -4.6790    2.6190   -0.6910 C   0  0  0  0  0  0  0  0  0  0  0  0
   -3.5650    3.6300   -0.7770 C   0  0  0  0  0  0  0  0  0  0  0  0
   -3.4420    4.6080    0.1920 C   0  0  0  0  0  0  0  0  0  0  0  0
   -2.4200    5.5350    0.1130 C   0  0  0  0  0  0  0  0  0  0  0  0
   -1.5200    5.4840   -0.9350 C   0  0  0  0  0  0  0  0  0  0  0  0
   -1.6430    4.5060   -1.9040 C   0  0  0  0  0  0  0  0  0  0  0  0
   -2.6620    3.5760   -1.8230 C   0  0  0  0  0  0  0  0  0  0  0  0
   -5.3740    0.4380    0.3100 C   0  0  0  0  0  0  0  0  0  0  0  0
   -4.9430   -0.7020    1.2350 C   0  0  0  0  0  0  0  0  0  0  0  0
   -6.1100   -1.6720    1.4290 C   0  0  0  0  0  0  0  0  0  0  0  0
   -6.5270   -2.2450    0.0730 C   0  0  0  0  0  0  0  0  0  0  0  0
   -6.9590   -1.1060   -0.8520 C   0  0  0  0  0  0  0  0  0  0  0  0
   -5.7920   -0.1360   -1.0460 C   0  0  0  0  0  0  0  0  0  0  0  0
   -7.5950   -3.1320    0.2500 F   0  0  0  0  0  0  0  0  0  0  0  0
   -5.4460   -2.9250   -0.4980 F   0  0  0  0  0  0  0  0  0  0  0  0
   -1.0390   -0.2800   -0.4710 N   0  0  0  0  0  0  0  0  0  0  0  0
    2.5060   -0.9330    0.3170 N   0  0  0  0  0  0  0  0  0  0  0  0
    5.7660    1.9930    3.2110 N   0  0  0  0  0  0  0  0  0  0  0  0
   -2.1450    0.3470    1.3490 O   0  0  0  0  0  0  0  0  0  0  0  0
    5.9460   -0.2410    3.5600 O   0  0  0  0  0  0  0  0  0  0  0  0
    3.2130   -1.7560   -2.2730 O   0  0  0  0  0  0  0  0  0  0  0  0
    1.4190    0.2020   -1.2490 O   0  0  0  0  0  0  0  0  0  0  0  0
    3.7230    0.4050   -0.7460 H   0  0  0  0  0  0  0  0  0  0  0  0
    4.9040   -1.4440    1.3750 H   0  0  0  0  0  0  0  0  0  0  0  0
    5.8210   -0.2460    0.4310 H   0  0  0  0  0  0  0  0  0  0  0  0
    3.4560    0.4050    2.2620 H   0  0  0  0  0  0  0  0  0  0  0  0
    5.6560    3.6710    1.9360 H   0  0  0  0  0  0  0  0  0  0  0  0
    4.1700    3.3320    2.8710 H   0  0  0  0  0  0  0  0  0  0  0  0
    5.1790    2.0010    0.3400 H   0  0  0  0  0  0  0  0  0  0  0  0
    3.4900    2.3050    0.8670 H   0  0  0  0  0  0  0  0  0  0  0  0
   -3.8440    1.7380    1.0890 H   0  0  0  0  0  0  0  0  0  0  0  0
   -0.0310   -0.5060    1.3540 H   0  0  0  0  0  0  0  0  0  0  0  0
   -0.1420   -2.7580   -0.7020 H   0  0  0  0  0  0  0  0  0  0  0  0
    0.7380   -2.8450    0.8420 H   0  0  0  0  0  0  0  0  0  0  0  0
   -2.2460   -2.2630    0.5870 H   0  0  0  0  0  0  0  0  0  0  0  0
   -0.7830   -4.8240    1.3730 H   0  0  0  0  0  0  0  0  0  0  0  0
   -2.5450   -4.5760    1.4280 H   0  0  0  0  0  0  0  0  0  0  0  0
   -1.6930   -4.5700   -0.1350 H   0  0  0  0  0  0  0  0  0  0  0  0
   -0.4680   -2.9330    2.9750 H   0  0  0  0  0  0  0  0  0  0  0  0
   -1.1530   -1.3320    2.6090 H   0  0  0  0  0  0  0  0  0  0  0  0
   -2.2300   -2.6850    3.0300 H   0  0  0  0  0  0  0  0  0  0  0  0
    4.3730   -2.5770   -0.7730 H   0  0  0  0  0  0  0  0  0  0  0  0
    5.7820   -1.1110   -2.0620 S   0  0  0  0  0  0  0  0  0  0  0  0
   -4.9590    2.3000   -1.6950 H   0  0  0  0  0  0  0  0  0  0  0  0
   -5.5410    3.0690   -0.1990 H   0  0  0  0  0  0  0  0  0  0  0  0
   -4.1450    4.6470    1.0110 H   0  0  0  0  0  0  0  0  0  0  0  0
   -2.3240    6.2990    0.8700 H   0  0  0  0  0  0  0  0  0  0  0  0
   -0.7220    6.2090   -0.9970 H   0  0  0  0  0  0  0  0  0  0  0  0
   -0.9400    4.4670   -2.7240 H   0  0  0  0  0  0  0  0  0  0  0  0
   -2.7550    2.8090   -2.5780 H   0  0  0  0  0  0  0  0  0  0  0  0
   -6.2170    0.9670    0.7550 H   0  0  0  0  0  0  0  0  0  0  0  0
   -4.1000   -1.2320    0.7890 H   0  0  0  0  0  0  0  0  0  0  0  0
   -4.6450   -0.2940    2.2010 H   0  0  0  0  0  0  0  0  0  0  0  0
   -5.8020   -2.4840    2.0870 H   0  0  0  0  0  0  0  0  0  0  0  0
   -6.9520   -1.1420    1.8740 H   0  0  0  0  0  0  0  0  0  0  0  0
   -7.2560   -1.5140   -1.8180 H   0  0  0  0  0  0  0  0  0  0  0  0
   -7.8010   -0.5760   -0.4070 H   0  0  0  0  0  0  0  0  0  0  0  0
   -6.0990    0.6760   -1.7050 H   0  0  0  0  0  0  0  0  0  0  0  0
   -4.9490   -0.6660   -1.4910 H   0  0  0  0  0  0  0  0  0  0  0  0
   -0.9800   -0.2830   -1.4400 H   0  0  0  0  0  0  0  0  0  0  0  0
    2.4660   -1.4910    1.1090 H   0  0  0  0  0  0  0  0  0  0  0  0
    6.4010    2.2930    3.8800 H   0  0  0  0  0  0  0  0  0  0  0  0
    2.3530   -2.0270   -1.9230 H   0  0  0  0  0  0  0  0  0  0  0  0
    6.2090   -2.0860   -3.0030 O   0  0  0  0  0  0  0  0  0  0  0  0
    5.7390    0.2680   -2.4050 O   0  0  0  0  0  0  0  0  0  0  0  0
    6.8150   -1.1880   -0.9470 O   0  0  0  0  0  0  0  0  0  0  0  0
    7.7090   -0.9400   -1.2210 H   0  0  0  0  0  0  0  0  0  0  0  0
 27 31  1  0  0  0  0
  4 36  2  0  0  0  0
 27 30  1  0  0  0  0
 26 27  1  0  0  0  0
 27 28  1  0  0  0  0
 25 26  1  0  0  0  0
 24 25  1  0  0  0  0
  4 34  1  0  0  0  0
  3  4  1  0  0  0  0
 28 29  1  0  0  0  0
  5 34  1  0  0  0  0
 24 29  1  0  0  0  0
  8 24  1  0  0  0  0
  8 17  1  0  0  0  0
  7  8  1  0  0  0  0
  9 35  2  0  0  0  0
 17 18  1  0  0  0  0
  2  3  1  0  0  0  0
  3  6  1  0  0  0  0
  7  9  1  0  0  0  0
  5  6  1  0  0  0  0
  9 32  1  0  0  0  0
  1  2  1  0  0  0  0
 12 13  1  0  0  0  0
 10 32  1  0  0  0  0
  1 33  1  0  0  0  0
 15 33  1  0  0  0  0
 18 23  2  0  0  0  0
 18 19  1  0  0  0  0
 10 15  1  0  0  0  0
 10 11  1  0  0  0  0
 22 23  1  0  0  0  0
  1 16  1  0  0  0  0
 11 12  1  0  0  0  0
 12 14  1  0  0  0  0
 15 38  2  0  0  0  0
 16 37  1  0  0  0  0
 19 20  2  0  0  0  0
 21 22  2  0  0  0  0
 20 21  1  0  0  0  0
  1 39  1  0  0  0  0
  2 40  1  0  0  0  0
  2 41  1  0  0  0  0
  3 42  1  0  0  0  0
  5 43  1  0  0  0  0
  5 44  1  0  0  0  0
  6 45  1  0  0  0  0
  6 46  1  0  0  0  0
  8 47  1  0  0  0  0
 10 48  1  0  0  0  0
 11 49  1  0  0  0  0
 11 50  1  0  0  0  0
 12 51  1  0  0  0  0
 13 52  1  0  0  0  0
 13 53  1  0  0  0  0
 13 54  1  0  0  0  0
 14 55  1  0  0  0  0
 14 56  1  0  0  0  0
 14 57  1  0  0  0  0
 16 58  1  0  0  0  0
 16 59  1  0  0  0  0
 17 60  1  0  0  0  0
 17 61  1  0  0  0  0
 19 62  1  0  0  0  0
 20 63  1  0  0  0  0
 21 64  1  0  0  0  0
 22 65  1  0  0  0  0
 23 66  1  0  0  0  0
 24 67  1  0  0  0  0
 25 68  1  0  0  0  0
 25 69  1  0  0  0  0
 26 70  1  0  0  0  0
 26 71  1  0  0  0  0
 28 72  1  0  0  0  0
 28 73  1  0  0  0  0
 29 74  1  0  0  0  0
 29 75  1  0  0  0  0
 32 76  1  0  0  0  0
 33 77  1  0  0  0  0
 34 78  1  0  0  0  0
 37 79  1  0  0  0  0
 59 80  2  0  0  0  0
 59 81  2  0  0  0  0
 59 82  1  0  0  0  0
 82 83  1  0  0  0  0
M  END
> <OPENEYE_ISO_SMILES>
CC(C)C[C@@H](C(=O)N[C@@H](C[C@@H]1CCNC1=O)[C@@H](O)S(=O)(=O)O)NC(=O)O[C@@H](Cc2ccccc2)C3CCC(CC3)(F)F

> <OPENEYE_INCHI>
InChI=1S/C28H41F2N3O8S/c1-17(2)14-21(25(35)32-22(26(36)42(38,39)40)16-20-10-13-31-24(20)34)33-27(37)41-23(15-18-6-4-3-5-7-18)19-8-11-28(29,30)12-9-19/h3-7,17,19-23,26,36H,8-16H2,1-2H3,(H,31,34)(H,32,35)(H,33,37)(H,38,39,40)/t20-,21-,22-,23-,26-/m0/s1

> <OPENEYE_INCHIKEY>
PDAAZWNVPCMYBL-KQWWLPFYSA-N

> <FORMULA>
C28H41F2N3O8S

$$$$
