@<TRIPOS>MOLECULE
/home/pku/3cl/gett_pdb/5RUI/5RUI_mol2/ligand/5RUI_4YS.pdb
 18 19 0 0 0
SMALL
GASTEIGER

@<TRIPOS>ATOM
      1  CAE      -47.3220  -29.0680    5.2670 C.ar  201  4YS201     -0.0538
      2  CAB      -47.2490  -29.0670    3.8830 C.ar  201  4YS201     -0.0612
      3  CAC      -48.4160  -29.0790    3.1110 C.ar  201  4YS201     -0.0610
      4  CAF      -49.6580  -29.0900    3.7220 C.ar  201  4YS201     -0.0488
      5  CAK      -49.7380  -29.0950    5.1250 C.ar  201  4YS201      0.0465
      6  CAJ      -48.5810  -29.0810    5.8900 C.ar  201  4YS201     -0.0114
      7  CAG      -48.6700  -29.0930    7.4110 C.ar  201  4YS201     -0.0378
      8  CAD      -50.0160  -29.1110    8.0660 C.ar  201  4YS201      0.0055
      9  NAH      -51.2180  -29.1280    7.2740 N.ar  201  4YS201     -0.3286
     10  CAI      -51.1330  -29.1210    5.8130 C.ar  201  4YS201      0.2565
     11  OAA      -52.1050  -29.1370    5.1430 O.2   201  4YS201     -0.2672
     12  H1       -46.5450  -29.0590    5.7780 H     201  4YS201      0.0624
     13  H2       -46.4190  -29.0450    3.4640 H     201  4YS201      0.0618
     14  H3       -48.3180  -29.0510    2.1900 H     201  4YS201      0.0618
     15  H4       -50.4580  -29.0830    3.2580 H     201  4YS201      0.0625
     16  H5       -47.8960  -29.0880    7.9270 H     201  4YS201      0.0638
     17  H6       -50.0760  -29.1220    8.9940 H     201  4YS201      0.0808
     18  H7       -51.9870  -29.1390    7.6600 H     201  4YS201      0.1683
@<TRIPOS>BOND
     1    14     3    1
     2     3     4   ar
     3     3     2   ar
     4    15     4    1
     5    13     2    1
     6     4     5   ar
     7     2     1   ar
     8     5    10   ar
     9     5     6   ar
    10    11    10    2
    11     1    12    1
    12     1     6   ar
    13    10     9   ar
    14     6     7   ar
    15     9    18    1
    16     9     8   ar
    17     7    16    1
    18     7     8   ar
    19     8    17    1
