YVM
  -OEChem-02242320043D

 90 92  0     1  0  0  0  0  0999 V2000
   -5.5180    3.8810   -0.0690 C   0  0  0  0  0  0  0  0  0  0  0  0
   -6.0910    0.2440   -0.6650 C   0  0  0  0  0  0  0  0  0  0  0  0
   -7.3630   -1.5510    0.4790 C   0  0  0  0  0  0  0  0  0  0  0  0
   -8.8360   -3.2140    1.3400 C   0  0  0  0  0  0  0  0  0  0  0  0
   -8.8910   -4.2540    2.4620 C   0  0  0  0  0  0  0  0  0  0  0  0
   -5.0630    5.3480   -1.8110 C   0  0  0  0  0  0  0  0  0  0  0  0
    1.3480   -4.7970   -0.9340 C   0  0  0  0  0  0  0  0  0  0  0  0
    0.4830   -3.0710    0.4810 C   0  0  0  0  0  0  0  0  0  0  0  0
   -0.7170   -3.7190   -1.4860 C   0  0  0  0  0  0  0  0  0  0  0  0
    1.1190   -0.4530   -0.5610 C   0  0  0  0  0  0  0  0  0  0  0  0
   -1.3110   -0.5750   -0.7030 C   0  0  1  0  0  0  0  0  0  0  0  0
   -1.6710   -1.9080   -0.0440 C   0  0  0  0  0  0  0  0  0  0  0  0
   -4.7810    1.0360   -0.6650 C   0  0  2  0  0  0  0  0  0  0  0  0
   -4.8490    2.1340   -1.7280 C   0  0  0  0  0  0  0  0  0  0  0  0
   -5.9170    3.1580   -1.3370 C   0  0  2  0  0  0  0  0  0  0  0  0
   -6.0730   -0.7710    0.4790 C   0  0  0  0  0  0  0  0  0  0  0  0
   -2.4330    0.4080   -0.4930 C   0  0  0  0  0  0  0  0  0  0  0  0
   -6.0090    4.2770   -2.3990 C   0  0  0  0  0  0  0  0  0  0  0  0
    1.4600   -4.0050    0.1930 C   0  0  0  0  0  0  0  0  0  0  0  0
   -0.6060   -2.9270   -0.3580 C   0  0  0  0  0  0  0  0  0  0  0  0
    0.2590   -4.6540   -1.7740 C   0  0  0  0  0  0  0  0  0  0  0  0
    2.3820    0.0880    0.0570 C   0  0  1  0  0  0  0  0  0  0  0  0
    2.4160   -0.2710    1.5440 C   0  0  0  0  0  0  0  0  0  0  0  0
    5.8200    1.5550    3.3710 C   0  0  0  0  0  0  0  0  0  0  0  0
    4.6130    2.2310    3.3240 C   0  0  0  0  0  0  0  0  0  0  0  0
    3.5120    1.6400    2.7330 C   0  0  0  0  0  0  0  0  0  0  0  0
    3.6170    0.3730    2.1880 C   0  0  0  0  0  0  0  0  0  0  0  0
    4.8210   -0.3030    2.2350 C   0  0  0  0  0  0  0  0  0  0  0  0
    5.9230    0.2860    2.8260 C   0  0  0  0  0  0  0  0  0  0  0  0
    4.7230    0.1520   -0.6160 C   0  0  0  0  0  0  0  0  0  0  0  0
    5.9190   -0.4530   -1.3060 C   0  0  0  0  0  0  0  0  0  0  0  0
    7.1200    0.4840   -1.1600 C   0  0  0  0  0  0  0  0  0  0  0  0
    9.4350    0.7100   -1.7380 C   0  0  0  0  0  0  0  0  0  0  0  0
   10.5350    0.0290   -2.4400 C   0  0  0  0  0  0  0  0  0  0  0  0
   11.4120   -0.5150   -3.0000 C   0  0  0  0  0  0  0  0  0  0  0  0
    6.8970    2.1340    3.9440 F   0  0  0  0  0  0  0  0  0  0  0  0
   -0.0820   -0.0490   -0.1020 N   0  0  0  0  0  0  0  0  0  0  0  0
   -3.6660    0.1350   -0.9640 N   0  0  0  0  0  0  0  0  0  0  0  0
   -5.0490    5.1050   -0.3640 N   0  0  0  0  0  0  0  0  0  0  0  0
    3.5450   -0.5010   -0.6140 N   0  0  0  0  0  0  0  0  0  0  0  0
    1.1830   -1.2510   -1.4720 O   0  0  0  0  0  0  0  0  0  0  0  0
   -5.6130    3.4240    1.0500 O   0  0  0  0  0  0  0  0  0  0  0  0
   -7.5710   -2.5040    1.4010 O   0  0  0  0  0  0  0  0  0  0  0  0
   -8.2090   -1.3180   -0.3510 O   0  0  0  0  0  0  0  0  0  0  0  0
   -2.2270    1.4460    0.1010 O   0  0  0  0  0  0  0  0  0  0  0  0
    4.8220    1.2270   -0.0620 O   0  0  0  0  0  0  0  0  0  0  0  0
    8.2530   -0.0900   -1.8140 O   0  0  0  0  0  0  0  0  0  0  0  0
   -6.9290    0.9280   -0.5310 H   0  0  0  0  0  0  0  0  0  0  0  0
   -6.1980   -0.2800   -1.6150 H   0  0  0  0  0  0  0  0  0  0  0  0
   -8.9260   -3.7150    0.3760 H   0  0  0  0  0  0  0  0  0  0  0  0
   -9.6560   -2.5070    1.4600 H   0  0  0  0  0  0  0  0  0  0  0  0
   -8.0710   -4.9610    2.3420 H   0  0  0  0  0  0  0  0  0  0  0  0
   -8.8010   -3.7530    3.4260 H   0  0  0  0  0  0  0  0  0  0  0  0
   -9.8410   -4.7870    2.4160 H   0  0  0  0  0  0  0  0  0  0  0  0
   -4.0600    5.2320   -2.2230 H   0  0  0  0  0  0  0  0  0  0  0  0
   -5.4440    6.3460   -2.0240 H   0  0  0  0  0  0  0  0  0  0  0  0
    2.1130   -5.5250   -1.1610 H   0  0  0  0  0  0  0  0  0  0  0  0
    0.5700   -2.4520    1.3630 H   0  0  0  0  0  0  0  0  0  0  0  0
   -1.5680   -3.6060   -2.1430 H   0  0  0  0  0  0  0  0  0  0  0  0
   -1.1560   -0.7270   -1.7710 H   0  0  0  0  0  0  0  0  0  0  0  0
   -1.7380   -1.7740    1.0350 H   0  0  0  0  0  0  0  0  0  0  0  0
   -2.6300   -2.2560   -0.4280 H   0  0  0  0  0  0  0  0  0  0  0  0
   -4.6300    1.4880    0.3150 H   0  0  0  0  0  0  0  0  0  0  0  0
   -3.8810    2.6290   -1.8010 H   0  0  0  0  0  0  0  0  0  0  0  0
   -5.1040    1.6920   -2.6910 H   0  0  0  0  0  0  0  0  0  0  0  0
   -6.8830    2.6700   -1.2100 H   0  0  0  0  0  0  0  0  0  0  0  0
   -5.2350   -1.4550    0.3450 H   0  0  0  0  0  0  0  0  0  0  0  0
   -5.9650   -0.2470    1.4290 H   0  0  0  0  0  0  0  0  0  0  0  0
   -7.0270    4.6570   -2.4780 H   0  0  0  0  0  0  0  0  0  0  0  0
   -5.6480    3.9270   -3.3670 H   0  0  0  0  0  0  0  0  0  0  0  0
    2.3100   -4.1180    0.8500 H   0  0  0  0  0  0  0  0  0  0  0  0
    0.1720   -5.2720   -2.6550 H   0  0  0  0  0  0  0  0  0  0  0  0
    2.4080    1.1710   -0.0560 H   0  0  0  0  0  0  0  0  0  0  0  0
    1.5080    0.0910    2.0260 H   0  0  0  0  0  0  0  0  0  0  0  0
    2.4810   -1.3530    1.6560 H   0  0  0  0  0  0  0  0  0  0  0  0
    4.5310    3.2210    3.7490 H   0  0  0  0  0  0  0  0  0  0  0  0
    2.5700    2.1670    2.6960 H   0  0  0  0  0  0  0  0  0  0  0  0
    4.9020   -1.2930    1.8110 H   0  0  0  0  0  0  0  0  0  0  0  0
    6.8640   -0.2420    2.8620 H   0  0  0  0  0  0  0  0  0  0  0  0
    6.1520   -1.4160   -0.8510 H   0  0  0  0  0  0  0  0  0  0  0  0
    5.6950   -0.5950   -2.3630 H   0  0  0  0  0  0  0  0  0  0  0  0
    6.8870    1.4470   -1.6150 H   0  0  0  0  0  0  0  0  0  0  0  0
    7.3440    0.6260   -0.1030 H   0  0  0  0  0  0  0  0  0  0  0  0
    9.7070    0.8570   -0.6920 H   0  0  0  0  0  0  0  0  0  0  0  0
    9.2500    1.6780   -2.2040 H   0  0  0  0  0  0  0  0  0  0  0  0
   12.1970   -1.0000   -3.5010 H   0  0  0  0  0  0  0  0  0  0  0  0
   -0.1330    0.5890    0.6270 H   0  0  0  0  0  0  0  0  0  0  0  0
   -3.8140   -0.6590   -1.5010 H   0  0  0  0  0  0  0  0  0  0  0  0
   -4.7400    5.7470    0.2960 H   0  0  0  0  0  0  0  0  0  0  0  0
    3.4660   -1.3600   -1.0560 H   0  0  0  0  0  0  0  0  0  0  0  0
 24 36  1  0  0  0  0
  7 21  2  0  0  0  0
  7 19  1  0  0  0  0
 24 29  2  0  0  0  0
 24 25  1  0  0  0  0
 28 29  1  0  0  0  0
  9 21  1  0  0  0  0
  8 19  2  0  0  0  0
 25 26  2  0  0  0  0
 27 28  2  0  0  0  0
  9 20  2  0  0  0  0
  8 20  1  0  0  0  0
 26 27  1  0  0  0  0
 23 27  1  0  0  0  0
 12 20  1  0  0  0  0
 22 23  1  0  0  0  0
 11 12  1  0  0  0  0
 11 37  1  0  0  0  0
 11 17  1  0  0  0  0
 10 37  1  0  0  0  0
 10 41  2  0  0  0  0
 10 22  1  0  0  0  0
 22 40  1  0  0  0  0
 30 40  1  0  0  0  0
 17 38  1  0  0  0  0
 17 45  2  0  0  0  0
 30 31  1  0  0  0  0
 30 46  2  0  0  0  0
 13 38  1  0  0  0  0
 31 32  1  0  0  0  0
  2 16  1  0  0  0  0
  3 16  1  0  0  0  0
  2 13  1  0  0  0  0
 13 14  1  0  0  0  0
 32 47  1  0  0  0  0
 14 15  1  0  0  0  0
  1 42  2  0  0  0  0
  1 15  1  0  0  0  0
 15 18  1  0  0  0  0
  1 39  1  0  0  0  0
  3 43  1  0  0  0  0
  3 44  2  0  0  0  0
  4 43  1  0  0  0  0
 33 47  1  0  0  0  0
  6 39  1  0  0  0  0
  6 18  1  0  0  0  0
  4  5  1  0  0  0  0
 33 34  1  0  0  0  0
 34 35  3  0  0  0  0
  2 48  1  0  0  0  0
  2 49  1  0  0  0  0
  4 50  1  0  0  0  0
  4 51  1  0  0  0  0
  5 52  1  0  0  0  0
  5 53  1  0  0  0  0
  5 54  1  0  0  0  0
  6 55  1  0  0  0  0
  6 56  1  0  0  0  0
  7 57  1  0  0  0  0
  8 58  1  0  0  0  0
  9 59  1  0  0  0  0
 11 60  1  0  0  0  0
 12 61  1  0  0  0  0
 12 62  1  0  0  0  0
 13 63  1  0  0  0  0
 14 64  1  0  0  0  0
 14 65  1  0  0  0  0
 15 66  1  0  0  0  0
 16 67  1  0  0  0  0
 16 68  1  0  0  0  0
 18 69  1  0  0  0  0
 18 70  1  0  0  0  0
 19 71  1  0  0  0  0
 21 72  1  0  0  0  0
 22 73  1  0  0  0  0
 23 74  1  0  0  0  0
 23 75  1  0  0  0  0
 25 76  1  0  0  0  0
 26 77  1  0  0  0  0
 28 78  1  0  0  0  0
 29 79  1  0  0  0  0
 31 80  1  0  0  0  0
 31 81  1  0  0  0  0
 32 82  1  0  0  0  0
 32 83  1  0  0  0  0
 33 84  1  0  0  0  0
 33 85  1  0  0  0  0
 35 86  1  0  0  0  0
 37 87  1  0  0  0  0
 38 88  1  0  0  0  0
 39 89  1  0  0  0  0
 40 90  1  0  0  0  0
M  END
> <OPENEYE_ISO_SMILES>
CCOC(=O)CC[C@H](C[C@@H]1CCNC1=O)NC(=O)[C@H](Cc2ccccc2)NC(=O)[C@@H](Cc3ccc(cc3)F)NC(=O)CCOCC#C

> <OPENEYE_INCHI>
InChI=1S/C35H43FN4O7/c1-3-19-46-20-17-31(41)39-29(22-25-10-12-27(36)13-11-25)35(45)40-30(21-24-8-6-5-7-9-24)34(44)38-28(14-15-32(42)47-4-2)23-26-16-18-37-33(26)43/h1,5-13,26,28-30H,4,14-23H2,2H3,(H,37,43)(H,38,44)(H,39,41)(H,40,45)/t26-,28+,29+,30-/m0/s1

> <OPENEYE_INCHIKEY>
AMUUPQIKCDYOIG-XQVPNCLKSA-N

> <FORMULA>
C35H43FN4O7

$$$$
