@<TRIPOS>MOLECULE
/home/pku/3cl/gett_pdb/7LME/7LME_mol2/ligand/7LME_Y6J.pdb
 31 35 0 0 0
SMALL
GASTEIGER

@<TRIPOS>ATOM
      1  C10       22.1100    1.1250   18.6290 C.ar  401  Y6J401      0.1217
      2  N11       21.1230    0.6020   17.8220 N.ar  401  Y6J401     -0.1288
      3  N13       25.5760    0.1650   14.0050 N.am  401  Y6J401     -0.2527
      4  C15       25.1860    0.6510   11.6850 C.ar  401  Y6J401      0.0050
      5  C20       26.2970   -1.1030   14.2330 C.ar  401  Y6J401      0.0543
      6  C23       27.6520   -3.4870   14.6740 C.ar  401  Y6J401      0.0734
      7  C19       24.9460    1.4720   10.4180 C.ar  401  Y6J401      0.0049
      8  C18       24.1250    0.6970    9.5180 C.ar  401  Y6J401      0.0352
      9  C16       24.5110   -0.6160   11.5710 C.ar  401  Y6J401      0.0328
     10  C02       24.4180    0.4830   14.8670 C.2   401  Y6J401      0.2545
     11  C03       24.0160   -0.5260   15.9810 C.3   401  Y6J401      0.2141
     12  C05       23.3280    0.7660   18.0420 C.ar  401  Y6J401      0.0994
     13  C06       24.5530    1.1700   18.6450 C.ar  401  Y6J401      0.0204
     14  C07       24.5420    1.9260   19.8240 C.ar  401  Y6J401      0.0016
     15  C08       23.3110    2.2780   20.4180 C.ar  401  Y6J401      0.0017
     16  C09       22.1000    1.8850   19.8270 C.ar  401  Y6J401      0.0225
     17  C14       25.9980    1.0790   12.9240 C.3   401  Y6J401      0.1253
     18  C21       25.8130   -2.3020   13.7010 C.ar  401  Y6J401      0.0162
     19  C22       26.4870   -3.5020   13.9120 C.ar  401  Y6J401      0.0179
     20  C25       29.7940   -4.8630   14.6950 C.2   401  Y6J401      0.2451
     21  C26       30.4630   -6.2160   14.9970 C.3   401  Y6J401      0.0786
     22  C27       30.0740   -6.7810   16.3630 C.3   401  Y6J401      0.0096
     23  C28       31.4840   -6.2300   16.1390 C.3   401  Y6J401      0.0096
     24  C30       28.1370   -2.2880   15.2160 C.ar  401  Y6J401      0.0179
     25  C31       27.4640   -1.0920   14.9970 C.ar  401  Y6J401      0.0162
     26  N04       23.0330    0.0450   16.9090 N.ar  401  Y6J401     -0.2223
     27  N12       21.7060   -0.0420   16.7890 N.ar  401  Y6J401     -0.0634
     28  N24       28.3600   -4.7450   14.9220 N.am  401  Y6J401     -0.1792
     29  O01       23.8210    1.5010   14.7080 O.2   401  Y6J401     -0.2723
     30  O29       30.4220   -3.9430   14.2880 O.2   401  Y6J401     -0.2730
     31  S17       23.7500   -0.7580   10.1500 S.2   401  Y6J401     -0.0862
@<TRIPOS>BOND
     1     8    31   ar
     2     8     7   ar
     3    31     9   ar
     4     7     4   ar
     5     9     4   ar
     6     4    17    1
     7    17     3    1
     8    18    19   ar
     9    18     5   ar
    10    19     6   ar
    11     3     5    1
    12     3    10   am
    13     5    25   ar
    14    30    20    2
    15     6    28    1
    16     6    24   ar
    17    20    28   am
    18    20    21    1
    19    29    10    2
    20    10    11    1
    21    21    23    1
    22    21    22    1
    23    25    24   ar
    24    11    26    1
    25    23    22    1
    26    27    26   ar
    27    27     2   ar
    28    26    12   ar
    29     2     1   ar
    30    12     1   ar
    31    12    13   ar
    32     1    16   ar
    33    13    14   ar
    34    14    15   ar
    35    16    15   ar
