@<TRIPOS>MOLECULE
/home/pku/3cl/gett_pdb/8D4K/8D4K_mol2/ligand/8D4K_K36.pdb
 29 30 0 0 0
SMALL
GASTEIGER

@<TRIPOS>ATOM
      1  C7         8.9650    3.7020   22.2370 C.3   401  K36401      0.2368
      2  O8         9.7460    2.7280   22.8590 O.3   401  K36401     -0.4285
      3  C9        10.0270    1.5920   22.0990 C.2   401  K36401      0.4218
      4  O10        9.7780    1.5470   20.9480 O.2   401  K36401     -0.2245
      5  C1         7.4860    3.4950   22.5550 C.ar  401  K36401      0.0213
      6  C2         7.0570    2.3890   23.2680 C.ar  401  K36401     -0.0007
      7  C3         5.7130    2.2190   23.5460 C.ar  401  K36401     -0.0002
      8  C4         4.7900    3.1530   23.1140 C.ar  401  K36401     -0.0000
      9  C5         5.2150    4.2580   22.4040 C.ar  401  K36401     -0.0002
     10  C6         6.5600    4.4280   22.1280 C.ar  401  K36401     -0.0007
     11  N11       10.6310    0.4660   22.7620 N.am  401  K36401     -0.1611
     12  C12       10.7740   -0.7890   22.0770 C.3   401  K36401      0.1761
     13  C17        9.3920   -1.3390   21.7620 C.2   401  K36401      0.2614
     14  O18        8.5740   -1.3850   22.6020 O.2   401  K36401     -0.2715
     15  C13       11.4810   -1.7800   22.9880 C.3   401  K36401      0.0312
     16  C14       12.8880   -1.2910   23.3100 C.3   401  K36401      0.0022
     17  C15       13.6690   -1.1070   22.0160 C.3   401  K36401      0.0001
     18  C16       13.6030   -2.3130   24.1850 C.3   401  K36401      0.0001
     19  N19        9.0940   -1.8020   20.4310 N.am  401  K36401     -0.2030
     20  C20        7.7910   -2.3500   20.1290 C.3   401  K36401      0.1287
     21  C21        8.0330   -3.8210   19.7730 C.3   401  K36401      0.2036
     22  O22        6.7920   -4.4780   19.4950 O.3   401  K36401     -0.2185
     23  C24        7.1330   -1.5600   18.9900 C.3   401  K36401      0.0335
     24  C25        7.0490   -0.0370   19.3270 C.3   401  K36401      0.0818
     25  C26        6.1150    0.1560   20.4710 C.3   401  K36401      0.0326
     26  C27        5.1950    1.3260   20.0770 C.3   401  K36401      0.1156
     27  N28        5.4000    1.5620   18.5870 N.am  401  K36401     -0.2054
     28  C29        6.5340    0.7290   18.1390 C.2   401  K36401      0.2410
     29  O30        6.9460    0.6820   17.0400 O.2   401  K36401     -0.2734
@<TRIPOS>BOND
     1    29    28    2
     2    28    27   am
     3    28    24    1
     4    27    26    1
     5    23    24    1
     6    23    20    1
     7    24    25    1
     8    22    21    1
     9    21    20    1
    10    26    25    1
    11    20    19    1
    12    19    13   am
    13     4     3    2
    14    13    12    1
    15    13    14    2
    16    17    16    1
    17    12    11    1
    18    12    15    1
    19     3    11   am
    20     3     2    1
    21    10     9   ar
    22    10     5   ar
    23     1     5    1
    24     1     2    1
    25     9     8   ar
    26     5     6   ar
    27    15    16    1
    28     8     7   ar
    29     6     7   ar
    30    16    18    1
