WSG
  -OEChem-02242320043D

 29 30  0     0  0  0  0  0  0999 V2000
   -3.9810   -0.3340   -0.2250 N   0  0  0  0  0  0  0  0  0  0  0  0
   -0.4270   -0.4390   -0.1060 N   0  0  0  0  0  0  0  0  0  0  0  0
   -1.8000   -0.1350   -0.1440 C   0  0  0  0  0  0  0  0  0  0  0  0
    0.4810    0.5550   -0.0430 C   0  0  0  0  0  0  0  0  0  0  0  0
    1.9230    0.2360   -0.0030 C   0  0  0  0  0  0  0  0  0  0  0  0
    2.8670    1.2630    0.0610 C   0  0  0  0  0  0  0  0  0  0  0  0
    4.2110    0.9600    0.0980 C   0  0  0  0  0  0  0  0  0  0  0  0
    3.6940   -1.3870    0.0140 C   0  0  0  0  0  0  0  0  0  0  0  0
   -6.1620   -0.3770    0.8810 C   0  0  0  0  0  0  0  0  0  0  0  0
   -5.3290   -0.9040   -0.2890 C   0  0  0  0  0  0  0  0  0  0  0  0
   -3.6650    1.0300   -0.1730 N   0  0  0  0  0  0  0  0  0  0  0  0
   -2.3630    1.1500   -0.1240 C   0  0  0  0  0  0  0  0  0  0  0  0
    2.3470   -1.0940   -0.0240 C   0  0  0  0  0  0  0  0  0  0  0  0
    4.6270   -0.3620    0.0720 C   0  0  0  0  0  0  0  0  0  0  0  0
    5.9450   -0.6540    0.1080 F   0  0  0  0  0  0  0  0  0  0  0  0
    0.1140    1.7140   -0.0210 O   0  0  0  0  0  0  0  0  0  0  0  0
   -2.8170   -1.0330   -0.2000 C   0  0  0  0  0  0  0  0  0  0  0  0
   -0.1340   -1.3630   -0.1240 H   0  0  0  0  0  0  0  0  0  0  0  0
    2.5440    2.2940    0.0810 H   0  0  0  0  0  0  0  0  0  0  0  0
    4.9410    1.7540    0.1480 H   0  0  0  0  0  0  0  0  0  0  0  0
    4.0230   -2.4150   -0.0020 H   0  0  0  0  0  0  0  0  0  0  0  0
   -7.1650   -0.8020    0.8330 H   0  0  0  0  0  0  0  0  0  0  0  0
   -5.6900   -0.6630    1.8210 H   0  0  0  0  0  0  0  0  0  0  0  0
   -6.2240    0.7100    0.8220 H   0  0  0  0  0  0  0  0  0  0  0  0
   -5.8000   -0.6180   -1.2290 H   0  0  0  0  0  0  0  0  0  0  0  0
   -5.2660   -1.9910   -0.2300 H   0  0  0  0  0  0  0  0  0  0  0  0
   -1.8150    2.0800   -0.0810 H   0  0  0  0  0  0  0  0  0  0  0  0
    1.6220   -1.8930   -0.0690 H   0  0  0  0  0  0  0  0  0  0  0  0
   -2.7180   -2.1080   -0.2280 H   0  0  0  0  0  0  0  0  0  0  0  0
 14 15  1  0  0  0  0
  7 14  2  0  0  0  0
  8 14  1  0  0  0  0
  6  7  1  0  0  0  0
  8 13  2  0  0  0  0
  5  6  2  0  0  0  0
  5 13  1  0  0  0  0
  4  5  1  0  0  0  0
  4 16  2  0  0  0  0
  2  4  1  0  0  0  0
  2  3  1  0  0  0  0
  3 12  1  0  0  0  0
  3 17  2  0  0  0  0
 11 12  2  0  0  0  0
  1 17  1  0  0  0  0
  1 11  1  0  0  0  0
  1 10  1  0  0  0  0
  9 10  1  0  0  0  0
  2 18  1  0  0  0  0
  6 19  1  0  0  0  0
  7 20  1  0  0  0  0
  8 21  1  0  0  0  0
  9 22  1  0  0  0  0
  9 23  1  0  0  0  0
  9 24  1  0  0  0  0
 10 25  1  0  0  0  0
 10 26  1  0  0  0  0
 12 27  1  0  0  0  0
 13 28  1  0  0  0  0
 17 29  1  0  0  0  0
M  END
> <OPENEYE_ISO_SMILES>
CCn1cc(cn1)NC(=O)c2ccc(cc2)F

> <OPENEYE_INCHI>
InChI=1S/C12H12FN3O/c1-2-16-8-11(7-14-16)15-12(17)9-3-5-10(13)6-4-9/h3-8H,2H2,1H3,(H,15,17)

> <OPENEYE_INCHIKEY>
OBDJLTJVFBLJIR-UHFFFAOYSA-N

> <FORMULA>
C12H12FN3O

$$$$
