@<TRIPOS>MOLECULE
/home/pku/3cl/gett_pdb/7M8X/7M8X_mol2/ligand/7M8X_YTJ.pdb
 53 56 0 0 0
SMALL
GASTEIGER

@<TRIPOS>ATOM
      1  C24        6.2620   -5.5490   25.3760 C.3   401  YTJ401      0.0813
      2  C23        6.6340   -4.1590   24.8580 C.3   401  YTJ401      0.1128
      3  C22        6.6170   -1.8940   25.5170 C.ar  401  YTJ401      0.1226
      4  C25        4.1800   -5.4380   26.4380 C.3   401  YTJ401      0.0366
      5  C26        7.3240   -1.4650   24.3830 C.ar  401  YTJ401     -0.0120
      6  C21        5.9360   -0.9800   26.2900 C.ar  401  YTJ401     -0.0016
      7  C11        9.7870    4.3430   19.7070 C.1   401  YTJ401      0.0998
      8  C10       10.6030    4.2820   20.9960 C.ar  401  YTJ401      0.0595
      9  C1         8.0310   -0.2230   21.6090 C.ar  401  YTJ401      0.2635
     10  C12       11.4810    5.3410   21.2110 C.ar  401  YTJ401     -0.0438
     11  C13       12.2700    5.3850   22.3570 C.ar  401  YTJ401     -0.0605
     12  C14       12.1870    4.3650   23.2950 C.ar  401  YTJ401     -0.0611
     13  C15       11.3090    3.3110   23.0890 C.ar  401  YTJ401     -0.0528
     14  C16        8.9070    1.5540   22.9470 C.ar  401  YTJ401     -0.0397
     15  C17        8.1090    0.4180   22.8320 C.ar  401  YTJ401      0.0477
     16  C18        7.3410   -0.1110   24.0520 C.ar  401  YTJ401     -0.0078
     17  C19        6.6510    0.7970   24.8300 C.ar  401  YTJ401     -0.0353
     18  C2         8.5970   -0.4300   19.2580 C.ar  401  YTJ401      0.0675
     19  C20        5.9570    0.3630   25.9580 C.ar  401  YTJ401      0.0450
     20  C3         7.3540   -0.4880   18.6480 C.ar  401  YTJ401      0.0514
     21  C4         8.2680   -1.6390   16.8120 C.ar  401  YTJ401      0.0277
     22  C5         9.5390   -1.5980   17.3810 C.ar  401  YTJ401     -0.0416
     23  C6         9.7010   -0.9810   18.6180 C.ar  401  YTJ401     -0.0348
     24  C7         9.4790    1.3310   20.6300 C.ar  401  YTJ401      0.0210
     25  C8         9.5940    2.0260   21.8310 C.ar  401  YTJ401      0.0007
     26  C9        10.5020    3.2550   21.9470 C.ar  401  YTJ401      0.0009
     27  N1         8.7090    0.2400   20.5430 N.ar  401  YTJ401     -0.2816
     28  N2         7.2230   -1.0920   17.4590 N.ar  401  YTJ401     -0.2612
     29  N3         9.1910    4.4020   18.7490 N.1   401  YTJ401     -0.1909
     30  O1         7.2330   -1.3580   21.4940 O.2   401  YTJ401     -0.2667
     31  O2         6.5670   -3.2380   25.9020 O.3   401  YTJ401     -0.4896
     32  O3         4.8790   -5.7580   25.2730 O.3   401  YTJ401     -0.3796
     33 CL1         5.0970    1.5280   26.9920 Cl    401  YTJ401     -0.0834
     34  H15        6.5280   -5.6250   26.3060 H     401  YTJ401      0.0593
     35  H16        6.7260   -6.2200   24.8510 H     401  YTJ401      0.0593
     36  H13        6.0160   -3.8990   24.1580 H     401  YTJ401      0.0720
     37  H14        7.5360   -4.1780   24.5020 H     401  YTJ401      0.0720
     38  H19        3.2270   -5.5330   26.2790 H     401  YTJ401      0.0524
     39  H17        4.3750   -4.5220   26.6910 H     401  YTJ401      0.0524
     40  H18        4.4500   -6.0350   27.1520 H     401  YTJ401      0.0524
     41  H20        7.7790   -2.0810   23.8550 H     401  YTJ401      0.0660
     42  H12        5.4610   -1.2670   27.0360 H     401  YTJ401      0.0669
     43  H6        11.5420    6.0250   20.5830 H     401  YTJ401      0.0631
     44  H7        12.8520    6.0970   22.4950 H     401  YTJ401      0.0618
     45  H8        12.7180    4.3880   24.0590 H     401  YTJ401      0.0618
     46  H9        11.2550    2.6300   23.7200 H     401  YTJ401      0.0624
     47  H10        8.9800    1.9940   23.7630 H     401  YTJ401      0.0632
     48  H11        6.6490    1.6990   24.6020 H     401  YTJ401      0.0638
     49  H1         6.6120   -0.1080   19.0610 H     401  YTJ401      0.0851
     50  H2         8.1420   -2.0450   15.9840 H     401  YTJ401      0.0829
     51  H3        10.2660   -1.9770   16.9420 H     401  YTJ401      0.0633
     52  H4        10.5420   -0.9370   19.0130 H     401  YTJ401      0.0639
     53  H5         9.9420    1.6270   19.8800 H     401  YTJ401      0.0820
@<TRIPOS>BOND
     1    50    21    1
     2    21    22   ar
     3    21    28   ar
     4    51    22    1
     5    22    23   ar
     6    28    20   ar
     7    23    52    1
     8    23    18   ar
     9    20    49    1
    10    20    18   ar
    11    29     7    3
    12    18    27    1
    13     7     8    1
    14    53    24    1
    15    27    24   ar
    16    27     9   ar
    17    43    10    1
    18    24    25   ar
    19     8    10   ar
    20     8    26   ar
    21    10    11   ar
    22    30     9    2
    23     9    15   ar
    24    25    26    1
    25    25    14   ar
    26    26    13   ar
    27    11    44    1
    28    11    12   ar
    29    15    14   ar
    30    15    16    1
    31    14    47    1
    32    13    12   ar
    33    13    46    1
    34    12    45    1
    35    41     5    1
    36    16     5   ar
    37    16    17   ar
    38    36     2    1
    39     5     3   ar
    40    37     2    1
    41    48    17    1
    42    17    19   ar
    43    35     1    1
    44     2     1    1
    45     2    31    1
    46    32     1    1
    47    32     4    1
    48     1    34    1
    49     3    31    1
    50     3     6   ar
    51    19     6   ar
    52    19    33    1
    53    38     4    1
    54     6    42    1
    55     4    39    1
    56     4    40    1
