U9H
  -OEChem-02242320043D

 37 40  0     0  0  0  0  0  0999 V2000
   -3.3070   -0.4060   -0.0150 C   0  0  0  0  0  0  0  0  0  0  0  0
    4.7420   -0.1370    0.0700 C   0  0  0  0  0  0  0  0  0  0  0  0
   -4.5500    0.4850    0.0250 C   0  0  0  0  0  0  0  0  0  0  0  0
   -5.6140    0.1070   -1.0200 C   0  0  0  0  0  0  0  0  0  0  0  0
    2.3930    0.2740   -0.0220 C   0  0  0  0  0  0  0  0  0  0  0  0
   -6.6660    0.3850    0.0660 C   0  0  0  0  0  0  0  0  0  0  0  0
   -5.5700    0.0720    1.1000 C   0  0  0  0  0  0  0  0  0  0  0  0
   -2.2590   -0.0500    1.0550 C   0  0  0  0  0  0  0  0  0  0  0  0
   -0.0130    0.6350    0.0050 C   0  0  0  0  0  0  0  0  0  0  0  0
    2.6750    1.6310   -0.0970 C   0  0  0  0  0  0  0  0  0  0  0  0
    4.9420    1.2320   -0.0040 C   0  0  0  0  0  0  0  0  0  0  0  0
   -0.6290   -1.6330   -0.0770 N   0  0  0  0  0  0  0  0  0  0  0  0
    1.0650   -0.1770   -0.0310 N   0  0  0  0  0  0  0  0  0  0  0  0
   -2.2720    0.0290   -1.0680 C   0  0  0  0  0  0  0  0  0  0  0  0
    3.9210    2.0620   -0.0840 N   0  0  0  0  0  0  0  0  0  0  0  0
    1.5030   -2.3870   -0.1160 O   0  0  0  0  0  0  0  0  0  0  0  0
    0.7090   -1.4680   -0.0780 C   0  0  0  0  0  0  0  0  0  0  0  0
   -1.2040   -0.2880   -0.0230 C   0  0  0  0  0  0  0  0  0  0  0  0
   -0.0220    1.8460    0.0510 O   0  0  0  0  0  0  0  0  0  0  0  0
    5.7950   -0.9790    0.1520 F   0  0  0  0  0  0  0  0  0  0  0  0
    3.4460   -0.6320    0.0640 C   0  0  0  0  0  0  0  0  0  0  0  0
   -3.5480   -1.4680   -0.0540 H   0  0  0  0  0  0  0  0  0  0  0  0
   -4.3090    1.5480    0.0370 H   0  0  0  0  0  0  0  0  0  0  0  0
   -5.6630    0.7960   -1.8620 H   0  0  0  0  0  0  0  0  0  0  0  0
   -5.5690   -0.9370   -1.3290 H   0  0  0  0  0  0  0  0  0  0  0  0
   -7.0050    1.4210    0.0890 H   0  0  0  0  0  0  0  0  0  0  0  0
   -7.4890   -0.3300    0.0720 H   0  0  0  0  0  0  0  0  0  0  0  0
   -5.5140   -0.9820    1.3720 H   0  0  0  0  0  0  0  0  0  0  0  0
   -5.5850    0.7330    1.9670 H   0  0  0  0  0  0  0  0  0  0  0  0
   -2.3140    0.9840    1.3940 H   0  0  0  0  0  0  0  0  0  0  0  0
   -2.2140   -0.7650    1.8770 H   0  0  0  0  0  0  0  0  0  0  0  0
    1.8650    2.3420   -0.1640 H   0  0  0  0  0  0  0  0  0  0  0  0
    5.9490    1.6240    0.0050 H   0  0  0  0  0  0  0  0  0  0  0  0
   -1.1130   -2.4730   -0.1060 H   0  0  0  0  0  0  0  0  0  0  0  0
   -2.2360   -0.6210   -1.9420 H   0  0  0  0  0  0  0  0  0  0  0  0
   -2.3290    1.0870   -1.3280 H   0  0  0  0  0  0  0  0  0  0  0  0
    3.2590   -1.6940    0.1240 H   0  0  0  0  0  0  0  0  0  0  0  0
  6  7  1  0  0  0  0
  4  6  1  0  0  0  0
  3  7  1  0  0  0  0
  3  4  1  0  0  0  0
  1  3  1  0  0  0  0
  1  8  1  0  0  0  0
  1 14  1  0  0  0  0
  8 18  1  0  0  0  0
 14 18  1  0  0  0  0
  9 18  1  0  0  0  0
 12 18  1  0  0  0  0
  9 19  2  0  0  0  0
  9 13  1  0  0  0  0
 12 17  1  0  0  0  0
 13 17  1  0  0  0  0
  5 13  1  0  0  0  0
 16 17  2  0  0  0  0
  5 10  2  0  0  0  0
 10 15  1  0  0  0  0
  5 21  1  0  0  0  0
 11 15  2  0  0  0  0
  2 21  2  0  0  0  0
  2 11  1  0  0  0  0
  2 20  1  0  0  0  0
  1 22  1  0  0  0  0
  3 23  1  0  0  0  0
  4 24  1  0  0  0  0
  4 25  1  0  0  0  0
  6 26  1  0  0  0  0
  6 27  1  0  0  0  0
  7 28  1  0  0  0  0
  7 29  1  0  0  0  0
  8 30  1  0  0  0  0
  8 31  1  0  0  0  0
 10 32  1  0  0  0  0
 11 33  1  0  0  0  0
 12 34  1  0  0  0  0
 14 35  1  0  0  0  0
 14 36  1  0  0  0  0
 21 37  1  0  0  0  0
M  END
> <OPENEYE_ISO_SMILES>
c1c(cncc1F)N2C(=O)C3(CC(C3)C4CCC4)NC2=O

> <OPENEYE_INCHI>
InChI=1S/C15H16FN3O2/c16-11-4-12(8-17-7-11)19-13(20)15(18-14(19)21)5-10(6-15)9-2-1-3-9/h4,7-10H,1-3,5-6H2,(H,18,21)/t10-,15-

> <OPENEYE_INCHIKEY>
FOZLXSUKKDDCIZ-LGZQZNNBSA-N

> <FORMULA>
C15H16FN3O2

$$$$
