QRC
  -OEChem-02242320033D

 46 48  0     1  0  0  0  0  0999 V2000
   -5.1860    1.3480    0.7030 C   0  0  0  0  0  0  0  0  0  0  0  0
   -4.7050   -0.9470   -0.5010 C   0  0  0  0  0  0  0  0  0  0  0  0
   -4.3980    0.4500   -0.0060 C   0  0  0  0  0  0  0  0  0  0  0  0
   -2.8000   -2.3200    0.3890 C   0  0  0  0  0  0  0  0  0  0  0  0
   -3.3310   -1.5770   -0.8110 C   0  0  2  0  0  0  0  0  0  0  0  0
   -2.4610   -0.3400   -1.1190 C   0  0  1  0  0  0  0  0  0  0  0  0
   -4.6810    2.5910    1.0530 C   0  0  0  0  0  0  0  0  0  0  0  0
    8.3800    1.1130    0.7370 C   0  0  0  0  0  0  0  0  0  0  0  0
    6.1150    0.2520    0.4840 C   0  0  0  0  0  0  0  0  0  0  0  0
    3.9100   -0.5450    0.1110 C   0  0  0  0  0  0  0  0  0  0  0  0
    3.6710    0.2960   -0.9720 C   0  0  0  0  0  0  0  0  0  0  0  0
    2.3850    0.4970   -1.4180 C   0  0  0  0  0  0  0  0  0  0  0  0
    1.3180   -0.1450   -0.7830 C   0  0  0  0  0  0  0  0  0  0  0  0
   -0.0630    0.0680   -1.2600 C   0  0  0  0  0  0  0  0  0  0  0  0
   -3.3920    2.9350    0.6960 C   0  0  0  0  0  0  0  0  0  0  0  0
   -2.6080    2.0410   -0.0090 C   0  0  0  0  0  0  0  0  0  0  0  0
   -3.1090    0.7990   -0.3610 C   0  0  0  0  0  0  0  0  0  0  0  0
    1.5610   -0.9890    0.3040 C   0  0  0  0  0  0  0  0  0  0  0  0
    2.8510   -1.1900    0.7420 C   0  0  0  0  0  0  0  0  0  0  0  0
    7.4010    0.0270    0.8210 N   0  0  0  0  0  0  0  0  0  0  0  0
    5.2140   -0.7470    0.5610 N   0  0  0  0  0  0  0  0  0  0  0  0
   -1.0910   -0.5520   -0.6460 N   0  0  0  0  0  0  0  0  0  0  0  0
   -3.0310   -1.9120    1.5020 O   0  0  0  0  0  0  0  0  0  0  0  0
   -2.0710   -3.4340    0.2190 O   0  0  0  0  0  0  0  0  0  0  0  0
   -6.4560    1.0100    1.0480 O   0  0  0  0  0  0  0  0  0  0  0  0
   -0.2730    0.8020   -2.2060 O   0  0  0  0  0  0  0  0  0  0  0  0
    5.7690    1.3560    0.1100 O   0  0  0  0  0  0  0  0  0  0  0  0
   -5.2180   -1.5180    0.2730 H   0  0  0  0  0  0  0  0  0  0  0  0
   -5.3140   -0.9040   -1.4050 H   0  0  0  0  0  0  0  0  0  0  0  0
   -3.3930   -2.2370   -1.6760 H   0  0  0  0  0  0  0  0  0  0  0  0
   -2.4630   -0.1330   -2.1890 H   0  0  0  0  0  0  0  0  0  0  0  0
   -5.2950    3.2890    1.6030 H   0  0  0  0  0  0  0  0  0  0  0  0
    8.4370    1.4740   -0.2900 H   0  0  0  0  0  0  0  0  0  0  0  0
    8.0750    1.9290    1.3920 H   0  0  0  0  0  0  0  0  0  0  0  0
    9.3580    0.7450    1.0470 H   0  0  0  0  0  0  0  0  0  0  0  0
    4.4960    0.7910   -1.4620 H   0  0  0  0  0  0  0  0  0  0  0  0
    2.2000    1.1500   -2.2580 H   0  0  0  0  0  0  0  0  0  0  0  0
   -2.9970    3.9030    0.9670 H   0  0  0  0  0  0  0  0  0  0  0  0
   -1.6010    2.3130   -0.2870 H   0  0  0  0  0  0  0  0  0  0  0  0
    0.7390   -1.4860    0.7970 H   0  0  0  0  0  0  0  0  0  0  0  0
    3.0400   -1.8460    1.5790 H   0  0  0  0  0  0  0  0  0  0  0  0
    7.6770   -0.8530    1.1180 H   0  0  0  0  0  0  0  0  0  0  0  0
    5.4730   -1.6060    0.9290 H   0  0  0  0  0  0  0  0  0  0  0  0
   -0.9230   -1.1370    0.1090 H   0  0  0  0  0  0  0  0  0  0  0  0
   -1.7520   -3.8760    1.0180 H   0  0  0  0  0  0  0  0  0  0  0  0
   -6.5270    0.5740    1.9080 H   0  0  0  0  0  0  0  0  0  0  0  0
  8 20  1  0  0  0  0
  9 20  1  0  0  0  0
 10 21  1  0  0  0  0
 10 11  2  0  0  0  0
 11 12  1  0  0  0  0
 12 13  2  0  0  0  0
  6 22  1  0  0  0  0
  5  6  1  0  0  0  0
  4 23  2  0  0  0  0
  4 24  1  0  0  0  0
  4  5  1  0  0  0  0
  2  5  1  0  0  0  0
  2  3  1  0  0  0  0
  1  3  2  0  0  0  0
  1 25  1  0  0  0  0
  1  7  1  0  0  0  0
  7 15  2  0  0  0  0
 15 16  1  0  0  0  0
 16 17  2  0  0  0  0
 14 22  1  0  0  0  0
 14 26  2  0  0  0  0
 13 14  1  0  0  0  0
 13 18  1  0  0  0  0
 18 19  2  0  0  0  0
  9 21  1  0  0  0  0
  9 27  2  0  0  0  0
 10 19  1  0  0  0  0
  6 17  1  0  0  0  0
  3 17  1  0  0  0  0
  2 28  1  0  0  0  0
  2 29  1  0  0  0  0
  5 30  1  0  0  0  0
  6 31  1  0  0  0  0
  7 32  1  0  0  0  0
  8 33  1  0  0  0  0
  8 34  1  0  0  0  0
  8 35  1  0  0  0  0
 11 36  1  0  0  0  0
 12 37  1  0  0  0  0
 15 38  1  0  0  0  0
 16 39  1  0  0  0  0
 18 40  1  0  0  0  0
 19 41  1  0  0  0  0
 20 42  1  0  0  0  0
 21 43  1  0  0  0  0
 22 44  1  0  0  0  0
 24 45  1  0  0  0  0
 25 46  1  0  0  0  0
M  END
> <OPENEYE_ISO_SMILES>
CNC(=O)Nc1ccc(cc1)C(=O)N[C@@H]2c3cccc(c3C[C@@H]2C(=O)O)O

> <OPENEYE_INCHI>
InChI=1S/C19H19N3O5/c1-20-19(27)21-11-7-5-10(6-8-11)17(24)22-16-12-3-2-4-15(23)13(12)9-14(16)18(25)26/h2-8,14,16,23H,9H2,1H3,(H,22,24)(H,25,26)(H2,20,21,27)/t14-,16+/m0/s1

> <OPENEYE_INCHIKEY>
AIAOTJWQHRPTHB-GOEBONIOSA-N

> <FORMULA>
C19H19N3O5

$$$$
