QRI
  -OEChem-02242320033D

 46 48  0     1  0  0  0  0  0999 V2000
    8.4820    0.1460   -0.1120 C   0  0  0  0  0  0  0  0  0  0  0  0
    6.0690    0.2770   -0.4200 C   0  0  0  0  0  0  0  0  0  0  0  0
    3.7040    0.3080   -0.6430 C   0  0  0  0  0  0  0  0  0  0  0  0
    3.4740    0.9170    0.5860 C   0  0  0  0  0  0  0  0  0  0  0  0
    2.2180    0.8850    1.1480 C   0  0  0  0  0  0  0  0  0  0  0  0
    1.1730    0.2380    0.4810 C   0  0  0  0  0  0  0  0  0  0  0  0
   -0.1760    0.2010    1.0800 C   0  0  0  0  0  0  0  0  0  0  0  0
   -2.5200   -0.4590    1.0310 C   0  0  2  0  0  0  0  0  0  0  0  0
   -3.2890   -1.7050    0.5440 C   0  0  2  0  0  0  0  0  0  0  0  0
   -2.3350   -2.8040    0.1530 C   0  0  0  0  0  0  0  0  0  0  0  0
   -4.0460   -1.1660   -0.6880 C   0  0  0  0  0  0  0  0  0  0  0  0
   -4.2150    0.3160   -0.4330 C   0  0  0  0  0  0  0  0  0  0  0  0
   -5.0710    1.2400   -1.0200 C   0  0  0  0  0  0  0  0  0  0  0  0
   -5.0450    2.5660   -0.6170 C   0  0  0  0  0  0  0  0  0  0  0  0
   -4.1670    2.9680    0.3710 C   0  0  0  0  0  0  0  0  0  0  0  0
   -3.3170    2.0480    0.9550 C   0  0  0  0  0  0  0  0  0  0  0  0
   -3.3390    0.7230    0.5550 C   0  0  0  0  0  0  0  0  0  0  0  0
    1.4080   -0.3730   -0.7530 C   0  0  0  0  0  0  0  0  0  0  0  0
    2.6650   -0.3310   -1.3120 C   0  0  0  0  0  0  0  0  0  0  0  0
    7.2970    0.2180   -0.9710 N   0  0  0  0  0  0  0  0  0  0  0  0
    4.9780    0.3430   -1.2090 N   0  0  0  0  0  0  0  0  0  0  0  0
   -1.1820   -0.4220    0.4370 N   0  0  0  0  0  0  0  0  0  0  0  0
   -2.0000   -2.9310   -1.0010 O   0  0  0  0  0  0  0  0  0  0  0  0
   -1.8570   -3.6410    1.0870 O   0  0  0  0  0  0  0  0  0  0  0  0
   -5.9340    0.8430   -1.9920 O   0  0  0  0  0  0  0  0  0  0  0  0
   -0.3780    0.7340    2.1540 O   0  0  0  0  0  0  0  0  0  0  0  0
    5.9440    0.2710    0.7900 O   0  0  0  0  0  0  0  0  0  0  0  0
    8.4280   -0.7490    0.5080 H   0  0  0  0  0  0  0  0  0  0  0  0
    9.3780    0.1050   -0.7320 H   0  0  0  0  0  0  0  0  0  0  0  0
    8.5220    1.0290    0.5260 H   0  0  0  0  0  0  0  0  0  0  0  0
    4.2820    1.4160    1.1010 H   0  0  0  0  0  0  0  0  0  0  0  0
    2.0400    1.3570    2.1020 H   0  0  0  0  0  0  0  0  0  0  0  0
   -2.4510   -0.4570    2.1190 H   0  0  0  0  0  0  0  0  0  0  0  0
   -3.9870   -2.0530    1.3060 H   0  0  0  0  0  0  0  0  0  0  0  0
   -3.4610   -1.3300   -1.5940 H   0  0  0  0  0  0  0  0  0  0  0  0
   -5.0190   -1.6500   -0.7760 H   0  0  0  0  0  0  0  0  0  0  0  0
   -5.7100    3.2840   -1.0740 H   0  0  0  0  0  0  0  0  0  0  0  0
   -4.1450    4.0000    0.6860 H   0  0  0  0  0  0  0  0  0  0  0  0
   -2.6320    2.3650    1.7270 H   0  0  0  0  0  0  0  0  0  0  0  0
    0.6030   -0.8730   -1.2710 H   0  0  0  0  0  0  0  0  0  0  0  0
    2.8460   -0.7990   -2.2680 H   0  0  0  0  0  0  0  0  0  0  0  0
    7.3970    0.2230   -1.9360 H   0  0  0  0  0  0  0  0  0  0  0  0
    5.0800    0.4150   -2.1710 H   0  0  0  0  0  0  0  0  0  0  0  0
   -1.0200   -0.8470   -0.4200 H   0  0  0  0  0  0  0  0  0  0  0  0
   -1.2480   -4.3310    0.7880 H   0  0  0  0  0  0  0  0  0  0  0  0
   -6.7940    0.5530   -1.6590 H   0  0  0  0  0  0  0  0  0  0  0  0
  1 20  1  0  0  0  0
  2 20  1  0  0  0  0
  3 21  1  0  0  0  0
  3  4  2  0  0  0  0
  4  5  1  0  0  0  0
  5  6  2  0  0  0  0
  8 22  1  0  0  0  0
  8  9  1  0  0  0  0
 10 23  2  0  0  0  0
 10 24  1  0  0  0  0
  9 10  1  0  0  0  0
  9 11  1  0  0  0  0
 11 12  1  0  0  0  0
 12 13  2  0  0  0  0
 13 25  1  0  0  0  0
 13 14  1  0  0  0  0
 14 15  2  0  0  0  0
 15 16  1  0  0  0  0
 16 17  2  0  0  0  0
  7 22  1  0  0  0  0
  7 26  2  0  0  0  0
  6  7  1  0  0  0  0
  6 18  1  0  0  0  0
 18 19  2  0  0  0  0
  2 21  1  0  0  0  0
  2 27  2  0  0  0  0
  3 19  1  0  0  0  0
  8 17  1  0  0  0  0
 12 17  1  0  0  0  0
  1 28  1  0  0  0  0
  1 29  1  0  0  0  0
  1 30  1  0  0  0  0
  4 31  1  0  0  0  0
  5 32  1  0  0  0  0
  8 33  1  0  0  0  0
  9 34  1  0  0  0  0
 11 35  1  0  0  0  0
 11 36  1  0  0  0  0
 14 37  1  0  0  0  0
 15 38  1  0  0  0  0
 16 39  1  0  0  0  0
 18 40  1  0  0  0  0
 19 41  1  0  0  0  0
 20 42  1  0  0  0  0
 21 43  1  0  0  0  0
 22 44  1  0  0  0  0
 24 45  1  0  0  0  0
 25 46  1  0  0  0  0
M  END
> <OPENEYE_ISO_SMILES>
CNC(=O)Nc1ccc(cc1)C(=O)N[C@H]2c3cccc(c3C[C@H]2C(=O)O)O

> <OPENEYE_INCHI>
InChI=1S/C19H19N3O5/c1-20-19(27)21-11-7-5-10(6-8-11)17(24)22-16-12-3-2-4-15(23)13(12)9-14(16)18(25)26/h2-8,14,16,23H,9H2,1H3,(H,22,24)(H,25,26)(H2,20,21,27)/t14-,16+/m1/s1

> <OPENEYE_INCHIKEY>
AIAOTJWQHRPTHB-ZBFHGGJFSA-N

> <FORMULA>
C19H19N3O5

$$$$
