S7J
  -OEChem-02242320043D

 17 17  0     0  0  0  0  0  0999 V2000
    0.2680   -1.1430    0.0000 N   0  0  0  0  0  0  0  0  0  0  0  0
   -1.0270    1.2260    0.0000 C   0  0  0  0  0  0  0  0  0  0  0  0
    2.4260   -0.0130   -0.0000 C   0  0  0  0  0  0  0  0  0  0  0  0
   -3.9250   -1.1100   -0.0000 N   0  0  0  0  0  0  0  0  0  0  0  0
   -3.2380    0.0500   -0.0000 C   0  0  0  0  0  0  0  0  0  0  0  0
   -3.8340    1.1100   -0.0010 O   0  0  0  0  0  0  0  0  0  0  0  0
   -1.7600    0.0340    0.0000 C   0  0  0  0  0  0  0  0  0  0  0  0
   -1.0530   -1.1740    0.0000 C   0  0  0  0  0  0  0  0  0  0  0  0
    0.9190    0.0040    0.0000 C   0  0  0  0  0  0  0  0  0  0  0  0
    2.9030    0.9140    0.9330 F   0  0  0  0  0  0  0  0  0  0  0  0
    2.8780   -1.2920    0.3410 F   0  0  0  0  0  0  0  0  0  0  0  0
    2.8950    0.3240   -1.2740 F   0  0  0  0  0  0  0  0  0  0  0  0
    0.2930    1.1650    0.0000 N   0  0  0  0  0  0  0  0  0  0  0  0
   -1.5320    2.1810    0.0010 H   0  0  0  0  0  0  0  0  0  0  0  0
   -4.8940   -1.0990   -0.0010 H   0  0  0  0  0  0  0  0  0  0  0  0
   -3.4490   -1.9550    0.0000 H   0  0  0  0  0  0  0  0  0  0  0  0
   -1.5800   -2.1180   -0.0000 H   0  0  0  0  0  0  0  0  0  0  0  0
  3 11  1  0  0  0  0
  3 10  1  0  0  0  0
  3 12  1  0  0  0  0
  3  9  1  0  0  0  0
  1  9  2  0  0  0  0
  9 13  1  0  0  0  0
  1  8  1  0  0  0  0
  2 13  2  0  0  0  0
  7  8  2  0  0  0  0
  2  7  1  0  0  0  0
  5  7  1  0  0  0  0
  4  5  1  0  0  0  0
  5  6  2  0  0  0  0
  2 14  1  0  0  0  0
  4 15  1  0  0  0  0
  4 16  1  0  0  0  0
  8 17  1  0  0  0  0
M  END
> <OPENEYE_ISO_SMILES>
c1c(cnc(n1)C(F)(F)F)C(=O)N

> <OPENEYE_INCHI>
InChI=1S/C6H4F3N3O/c7-6(8,9)5-11-1-3(2-12-5)4(10)13/h1-2H,(H2,10,13)

> <OPENEYE_INCHIKEY>
OKRNBFHZDGTDRX-UHFFFAOYSA-N

> <FORMULA>
C6H4F3N3O

$$$$
