AQO
  -OEChem-02242320013D

 19 20  0     0  0  0  0  0  0999 V2000
   -0.2820    0.0000   -2.9290 C   0  0  0  0  0  0  0  0  0  0  0  0
    1.0980   -0.0000   -2.7820 C   0  0  0  0  0  0  0  0  0  0  0  0
    1.6740   -0.0000   -1.5430 C   0  0  0  0  0  0  0  0  0  0  0  0
    0.8630   -0.0000   -0.4040 C   0  0  0  0  0  0  0  0  0  0  0  0
    1.3910    0.0000    0.8420 N   0  0  0  0  0  0  0  0  0  0  0  0
    0.6290    0.0000    1.9070 C   0  0  0  0  0  0  0  0  0  0  0  0
    1.2310    0.0000    3.1400 N   0  0  0  0  0  0  0  0  0  0  0  0
   -0.7330   -0.0040    1.8480 N   0  0  0  0  0  0  0  0  0  0  0  0
   -1.3700    0.0010    0.6550 C   0  0  0  0  0  0  0  0  0  0  0  0
   -2.5860    0.0010    0.5880 O   0  0  0  0  0  0  0  0  0  0  0  0
   -0.5410    0.0000   -0.5570 C   0  0  0  0  0  0  0  0  0  0  0  0
   -1.1010    0.0000   -1.8340 C   0  0  0  0  0  0  0  0  0  0  0  0
   -0.7140    0.0000   -3.9190 H   0  0  0  0  0  0  0  0  0  0  0  0
    1.7260    0.0000   -3.6610 H   0  0  0  0  0  0  0  0  0  0  0  0
    2.7490    0.0000   -1.4440 H   0  0  0  0  0  0  0  0  0  0  0  0
    2.1980    0.0000    3.2080 H   0  0  0  0  0  0  0  0  0  0  0  0
    0.6880    0.0050    3.9450 H   0  0  0  0  0  0  0  0  0  0  0  0
   -1.2500   -0.0030    2.6690 H   0  0  0  0  0  0  0  0  0  0  0  0
   -2.1740   -0.0000   -1.9570 H   0  0  0  0  0  0  0  0  0  0  0  0
  1  2  2  0  0  0  0
  1 12  1  0  0  0  0
  1 13  1  0  0  0  0
  2  3  1  0  0  0  0
  2 14  1  0  0  0  0
  3  4  2  0  0  0  0
  3 15  1  0  0  0  0
  4  5  1  0  0  0  0
  4 11  1  0  0  0  0
  5  6  2  0  0  0  0
  6  7  1  0  0  0  0
  6  8  1  0  0  0  0
  7 16  1  0  0  0  0
  7 17  1  0  0  0  0
  8  9  1  0  0  0  0
  8 18  1  0  0  0  0
  9 10  2  0  0  0  0
  9 11  1  0  0  0  0
 11 12  2  0  0  0  0
 12 19  1  0  0  0  0
M  END
> <OPENEYE_ISO_SMILES>
c1ccc2c(c1)c(=O)[nH]c(n2)N

> <OPENEYE_INCHI>
InChI=1S/C8H7N3O/c9-8-10-6-4-2-1-3-5(6)7(12)11-8/h1-4H,(H3,9,10,11,12)

> <OPENEYE_INCHIKEY>
SDTFBAXSPXZDKC-UHFFFAOYSA-N

> <FORMULA>
C8H7N3O

$$$$
