HHQ
  -OEChem-02242320023D

 12 12  0     0  0  0  0  0  0999 V2000
   -0.9510    1.4730    0.0030 C   0  0  0  0  0  0  0  0  0  0  0  0
   -2.3410    1.6830   -0.0010 C   0  0  0  0  0  0  0  0  0  0  0  0
   -3.2280    0.7240   -0.0020 N   0  0  0  0  0  0  0  0  0  0  0  0
   -0.4380    0.2310    0.0040 C   0  0  0  0  0  0  0  0  0  0  0  0
   -3.7410   -1.4370   -0.0030 O   0  0  0  0  0  0  0  0  0  0  0  0
   -2.8900   -0.5710   -0.0010 C   0  0  0  0  0  0  0  0  0  0  0  0
   -1.4170   -0.9270    0.0080 C   0  0  0  0  0  0  0  0  0  0  0  0
    1.6320   -0.0930   -0.0010 I   0  0  0  0  0  0  0  0  0  0  0  0
   -0.2850    2.3230   -0.0000 H   0  0  0  0  0  0  0  0  0  0  0  0
   -2.6980    2.7020   -0.0010 H   0  0  0  0  0  0  0  0  0  0  0  0
   -1.2120   -1.5370   -0.8720 H   0  0  0  0  0  0  0  0  0  0  0  0
   -1.2240   -1.5390    0.8900 H   0  0  0  0  0  0  0  0  0  0  0  0
  2  3  2  0  0  0  0
  3  6  1  0  0  0  0
  5  6  2  0  0  0  0
  1  2  1  0  0  0  0
  6  7  1  0  0  0  0
  1  4  2  0  0  0  0
  4  7  1  0  0  0  0
  4  8  1  0  0  0  0
  1  9  1  0  0  0  0
  2 10  1  0  0  0  0
  7 11  1  0  0  0  0
  7 12  1  0  0  0  0
M  END
> <OPENEYE_ISO_SMILES>
C1C(=CC=NC1=O)I

> <OPENEYE_INCHI>
InChI=1S/C5H4INO/c6-4-1-2-7-5(8)3-4/h1-2H,3H2

> <OPENEYE_INCHIKEY>
GRVSGGNZRNHMQI-UHFFFAOYSA-N

> <FORMULA>
C5H4INO

$$$$
