VW4
  -OEChem-02242320043D

 26 26  0     1  0  0  0  0  0999 V2000
    3.2920   -0.2670    1.4970 N   0  0  0  0  0  0  0  0  0  0  0  0
   -1.6260    0.1140   -0.2190 C   0  0  0  0  0  0  0  0  0  0  0  0
   -2.1440   -1.0710    0.2680 C   0  0  0  0  0  0  0  0  0  0  0  0
   -3.4740   -1.1430    0.6390 C   0  0  0  0  0  0  0  0  0  0  0  0
   -4.2850   -0.0300    0.5230 C   0  0  0  0  0  0  0  0  0  0  0  0
   -3.7670    1.1550    0.0350 C   0  0  0  0  0  0  0  0  0  0  0  0
    0.0910   -0.8220   -1.7440 C   0  0  0  0  0  0  0  0  0  0  0  0
   -0.1780    0.1910   -0.6300 C   0  0  2  0  0  0  0  0  0  0  0  0
    0.7110   -0.1280    0.5740 C   0  0  0  0  0  0  0  0  0  0  0  0
    2.4510    0.1080    0.1200 S   0  0  0  0  0  0  0  0  0  0  0  0
    2.7280    1.4850   -0.0960 O   0  0  0  0  0  0  0  0  0  0  0  0
    2.8600   -0.8780   -0.8190 O   0  0  0  0  0  0  0  0  0  0  0  0
   -2.4370    1.2270   -0.3360 C   0  0  0  0  0  0  0  0  0  0  0  0
    3.8610    0.3990    1.9140 H   0  0  0  0  0  0  0  0  0  0  0  0
    3.2120   -1.1510    1.8880 H   0  0  0  0  0  0  0  0  0  0  0  0
   -1.5110   -1.9410    0.3590 H   0  0  0  0  0  0  0  0  0  0  0  0
   -3.8790   -2.0690    1.0200 H   0  0  0  0  0  0  0  0  0  0  0  0
   -5.3240   -0.0860    0.8120 H   0  0  0  0  0  0  0  0  0  0  0  0
   -4.4000    2.0250   -0.0560 H   0  0  0  0  0  0  0  0  0  0  0  0
   -0.5430   -0.5950   -2.6020 H   0  0  0  0  0  0  0  0  0  0  0  0
    1.1380   -0.7670   -2.0410 H   0  0  0  0  0  0  0  0  0  0  0  0
   -0.1320   -1.8270   -1.3840 H   0  0  0  0  0  0  0  0  0  0  0  0
    0.0450    1.1950   -0.9900 H   0  0  0  0  0  0  0  0  0  0  0  0
    0.4570    0.5370    1.3990 H   0  0  0  0  0  0  0  0  0  0  0  0
    0.5520   -1.1630    0.8790 H   0  0  0  0  0  0  0  0  0  0  0  0
   -2.0320    2.1530   -0.7170 H   0  0  0  0  0  0  0  0  0  0  0  0
 10 12  2  0  0  0  0
  1 10  1  0  0  0  0
 10 11  2  0  0  0  0
  9 10  1  0  0  0  0
  8  9  1  0  0  0  0
  7  8  1  0  0  0  0
  2  8  1  0  0  0  0
  2 13  2  0  0  0  0
  2  3  1  0  0  0  0
  6 13  1  0  0  0  0
  5  6  2  0  0  0  0
  3  4  2  0  0  0  0
  4  5  1  0  0  0  0
  1 14  1  0  0  0  0
  1 15  1  0  0  0  0
  3 16  1  0  0  0  0
  4 17  1  0  0  0  0
  5 18  1  0  0  0  0
  6 19  1  0  0  0  0
  7 20  1  0  0  0  0
  7 21  1  0  0  0  0
  7 22  1  0  0  0  0
  8 23  1  0  0  0  0
  9 24  1  0  0  0  0
  9 25  1  0  0  0  0
 13 26  1  0  0  0  0
M  END
> <OPENEYE_ISO_SMILES>
C[C@H](CS(=O)(=O)N)c1ccccc1

> <OPENEYE_INCHI>
InChI=1S/C9H13NO2S/c1-8(7-13(10,11)12)9-5-3-2-4-6-9/h2-6,8H,7H2,1H3,(H2,10,11,12)/t8-/m1/s1

> <OPENEYE_INCHIKEY>
HXLOQIXEAPZOSG-MRVPVSSYSA-N

> <FORMULA>
C9H13NO2S

$$$$
