@<TRIPOS>MOLECULE
/home/pku/3cl/gett_pdb/7ENE/7ENE_mol2/ligand/7ENE_J7R.pdb
 34 37 0 0 0
SMALL
GASTEIGER

@<TRIPOS>ATOM
      1  N1        34.6350  -17.8670   33.9860 N.am  401  J7R401     -0.1997
      2  N3        36.3830  -19.9060   37.1430 N.pl3 401  J7R401     -0.2359
      3  C4        35.2640  -20.8410   33.7000 C.ar  401  J7R401      0.0127
      4  C5        35.9160  -22.0480   33.5290 C.ar  401  J7R401      0.0363
      5  C6        36.7200  -22.5510   34.5370 C.ar  401  J7R401      0.0279
      6  C7        36.8720  -21.8610   35.7270 C.ar  401  J7R401      0.1072
      7  C8        36.2170  -20.6500   35.9010 C.ar  401  J7R401      0.0880
      8  C10       38.7440  -19.1680   37.2840 C.3   401  J7R401      0.0233
      9  C13       37.1870  -18.4420   39.6610 C.3   401  J7R401      0.0234
     10  C15       34.6010  -16.6970   38.9260 C.2   401  J7R401      0.2663
     11  C17       32.2300  -17.5270   39.3400 C.ar  401  J7R401      0.1034
     12  C20       30.6020  -14.7070   36.7470 C.ar  401  J7R401      0.0015
     13  C21       31.4150  -13.7960   36.0800 C.ar  401  J7R401      0.0000
     14  C22       32.8000  -13.8160   36.2710 C.ar  401  J7R401      0.0000
     15  C24       32.5440  -15.6810   37.8130 C.ar  401  J7R401      0.0074
     16  C1        33.9370  -16.6140   34.1790 C.3   401  J7R401      0.1388
     17  C11       39.5040  -18.7000   38.5290 C.3   401  J7R401      0.0019
     18  C12       38.7010  -18.5840   39.8300 C.3   401  J7R401      0.0019
     19  C14       36.8130  -17.8280   38.3190 C.3   401  J7R401      0.1154
     20  C16       33.0960  -16.6450   38.7040 C.ar  401  J7R401      0.0742
     21  C18       30.3750  -16.6000   38.3190 C.ar  401  J7R401      0.0988
     22  C19       31.1900  -15.6600   37.6270 C.ar  401  J7R401      0.0193
     23  C2        34.6900  -18.8220   35.0690 C.2   401  J7R401      0.2662
     24  C23       33.3740  -14.7450   37.1300 C.ar  401  J7R401      0.0002
     25  C3        35.4170  -20.1460   34.8850 C.ar  401  J7R401      0.0718
     26  C9        37.2760  -18.7340   37.1770 C.3   401  J7R401      0.1124
     27  N2        37.7140  -22.4150   36.7750 N.pl3 401  J7R401     -0.1840
     28  N4        35.3600  -17.6980   38.2010 N.am  401  J7R401     -0.2016
     29  N5        30.9120  -17.4870   39.1440 N.ar  401  J7R401     -0.2422
     30  O1        34.1640  -18.5890   36.1040 O.2   401  J7R401     -0.2683
     31  O2        37.6680  -21.9930   37.8750 O.2   401  J7R401     -0.1725
     32  O3        38.5740  -23.4830   36.4780 O.co2 401  J7R401     -0.7770
     33  O4        35.1310  -15.9290   39.6560 O.2   401  J7R401     -0.2683
     34 BR1        35.7010  -23.0240   31.8650 Br    401  J7R401     -0.0489
@<TRIPOS>UNITY_ATOM_ATTR
32 1
charge -1
@<TRIPOS>BOND
     1    34     4    1
     2     4     3   ar
     3     4     5   ar
     4     3    25   ar
     5     1    16    1
     6     1    23   am
     7     5     6   ar
     8    25    23    1
     9    25     7   ar
    10    23    30    2
    11     6     7   ar
    12     6    27    1
    13     7     2    1
    14    13    14   ar
    15    13    12   ar
    16    14    24   ar
    17    32    27    2
    18    12    22   ar
    19    27    31    2
    20    24    15   ar
    21     2    26    1
    22    26     8    1
    23    26    19    1
    24     8    17    1
    25    22    15   ar
    26    22    21   ar
    27    15    20   ar
    28    28    19    1
    29    28    10   am
    30    19     9    1
    31    21    29   ar
    32    17    18    1
    33    20    10    1
    34    20    11   ar
    35    10    33    2
    36    29    11   ar
    37     9    18    1
