R9L
  -OEChem-02242320033D

 35 38  0     0  0  0  0  0  0999 V2000
   -2.9280    0.1130    0.5120 C   0  0  0  0  0  0  0  0  0  0  0  0
   -4.3630    0.5910    0.7480 C   0  0  0  0  0  0  0  0  0  0  0  0
   -1.9280    1.2620    0.3680 C   0  0  0  0  0  0  0  0  0  0  0  0
    0.5080    1.5730    0.1260 C   0  0  0  0  0  0  0  0  0  0  0  0
    1.3580    3.7080   -0.0590 C   0  0  0  0  0  0  0  0  0  0  0  0
    4.0820   -2.4780   -0.0160 C   0  0  0  0  0  0  0  0  0  0  0  0
    2.7110   -2.6520    0.1230 C   0  0  0  0  0  0  0  0  0  0  0  0
    1.8730   -1.5590    0.1490 C   0  0  0  0  0  0  0  0  0  0  0  0
    2.4020   -0.2760    0.0360 C   0  0  0  0  0  0  0  0  0  0  0  0
    3.7880   -0.0970   -0.1040 C   0  0  0  0  0  0  0  0  0  0  0  0
    4.6200   -1.2120   -0.1290 C   0  0  0  0  0  0  0  0  0  0  0  0
    2.8750    1.9750   -0.1190 C   0  0  0  0  0  0  0  0  0  0  0  0
   -3.3530   -0.4870   -0.8300 C   0  0  0  0  0  0  0  0  0  0  0  0
    1.8110    1.0710    0.0270 C   0  0  0  0  0  0  0  0  0  0  0  0
    4.8950   -3.5570   -0.0390 F   0  0  0  0  0  0  0  0  0  0  0  0
    4.0450    1.2600   -0.1950 N   0  0  0  0  0  0  0  0  0  0  0  0
    2.5980    3.2790   -0.1560 N   0  0  0  0  0  0  0  0  0  0  0  0
    0.3310    2.8910    0.0790 N   0  0  0  0  0  0  0  0  0  0  0  0
   -0.5710    0.7180    0.2650 N   0  0  0  0  0  0  0  0  0  0  0  0
   -4.9930   -2.0360    0.6580 O   0  0  0  0  0  0  0  0  0  0  0  0
   -6.0470   -0.5440   -1.0350 O   0  0  0  0  0  0  0  0  0  0  0  0
   -4.9890   -0.8610   -0.1410 S   0  0  0  0  0  0  0  0  0  0  0  0
   -4.6430    0.6020    1.8010 H   0  0  0  0  0  0  0  0  0  0  0  0
   -4.5890    1.5310    0.2460 H   0  0  0  0  0  0  0  0  0  0  0  0
   -2.1590    1.8340   -0.5310 H   0  0  0  0  0  0  0  0  0  0  0  0
   -1.9930    1.9130    1.2400 H   0  0  0  0  0  0  0  0  0  0  0  0
    1.1730    4.7720   -0.0930 H   0  0  0  0  0  0  0  0  0  0  0  0
    2.3010   -3.6470    0.2110 H   0  0  0  0  0  0  0  0  0  0  0  0
    0.8070   -1.6970    0.2570 H   0  0  0  0  0  0  0  0  0  0  0  0
    5.6870   -1.0860   -0.2360 H   0  0  0  0  0  0  0  0  0  0  0  0
   -3.3850    0.2460   -1.6370 H   0  0  0  0  0  0  0  0  0  0  0  0
   -2.7870   -1.3790   -1.0990 H   0  0  0  0  0  0  0  0  0  0  0  0
    4.9260    1.6520   -0.2970 H   0  0  0  0  0  0  0  0  0  0  0  0
   -0.4300   -0.2410    0.2940 H   0  0  0  0  0  0  0  0  0  0  0  0
   -2.6010   -0.6360    1.2330 H   0  0  0  0  0  0  0  0  0  0  0  0
  1  2  1  0  0  0  0
  1  3  1  0  0  0  0
  1 13  1  0  0  0  0
  2 22  1  0  0  0  0
  3 19  1  0  0  0  0
  4 14  2  0  0  0  0
  4 18  1  0  0  0  0
  4 19  1  0  0  0  0
  5 17  1  0  0  0  0
  5 18  2  0  0  0  0
  6  7  2  0  0  0  0
  6 11  1  0  0  0  0
  6 15  1  0  0  0  0
  7  8  1  0  0  0  0
  8  9  2  0  0  0  0
  9 10  1  0  0  0  0
  9 14  1  0  0  0  0
 10 11  2  0  0  0  0
 10 16  1  0  0  0  0
 12 14  1  0  0  0  0
 12 16  1  0  0  0  0
 12 17  2  0  0  0  0
 13 22  1  0  0  0  0
 20 22  2  0  0  0  0
 21 22  2  0  0  0  0
  2 23  1  0  0  0  0
  2 24  1  0  0  0  0
  3 25  1  0  0  0  0
  3 26  1  0  0  0  0
  5 27  1  0  0  0  0
  7 28  1  0  0  0  0
  8 29  1  0  0  0  0
 11 30  1  0  0  0  0
 13 31  1  0  0  0  0
 13 32  1  0  0  0  0
 16 33  1  0  0  0  0
 19 34  1  0  0  0  0
  1 35  1  0  0  0  0
M  END
> <OPENEYE_ISO_SMILES>
c1cc2c(cc1F)[nH]c3c2c(ncn3)NCC4CS(=O)(=O)C4

> <OPENEYE_INCHI>
InChI=1S/C14H13FN4O2S/c15-9-1-2-10-11(3-9)19-14-12(10)13(17-7-18-14)16-4-8-5-22(20,21)6-8/h1-3,7-8H,4-6H2,(H2,16,17,18,19)

> <OPENEYE_INCHIKEY>
JVQPJNYREDESAV-UHFFFAOYSA-N

> <FORMULA>
C14H13FN4O2S

$$$$
