@<TRIPOS>MOLECULE
/home/pku/3cl/gett_pdb/7M8Y/7M8Y_mol2/ligand/7M8Y_YTM.pdb
 58 62 0 0 0
SMALL
GASTEIGER

@<TRIPOS>ATOM
      1  C1       -13.8040  -27.2230    0.5360 C.ar  401  YTM401      0.2635
      2  C2       -14.5490  -27.9420   -0.3860 C.ar  401  YTM401      0.0477
      3  C3       -15.8940  -27.4710   -0.9170 C.ar  401  YTM401     -0.0078
      4  C4       -16.9590  -28.3780   -1.0110 C.ar  401  YTM401     -0.0353
      5  C5       -18.1870  -27.9580   -1.5070 C.ar  401  YTM401      0.0450
      6  C6       -18.3330  -26.6520   -1.8940 C.ar  401  YTM401     -0.0016
      7  O1       -14.2610  -26.0110    1.0210 O.2   401  YTM401     -0.2667
      8  O2       -17.5020  -24.4450   -2.1520 O.3   401  YTM401     -0.4916
      9  C7       -17.2790  -25.7620   -1.7890 C.ar  401  YTM401      0.1225
     10  C8       -18.5960  -23.9910   -1.3930 C.3   401  YTM401      0.0935
     11  C9       -18.2020  -22.7410   -0.6260 C.3   401  YTM401      0.0066
     12  O3       -11.4540  -31.9260    1.1510 O.2   401  YTM401     -0.2671
     13  O4       -10.8260  -34.2750   -2.8700 O.2   401  YTM401     -0.2467
     14  C10      -18.0000  -21.6900   -1.6880 C.ar  401  YTM401     -0.0442
     15  C11      -19.0210  -20.7810   -1.9510 C.ar  401  YTM401     -0.0585
     16  C12      -18.8270  -19.8320   -2.9450 C.ar  401  YTM401     -0.0615
     17  C13      -17.6270  -19.8150   -3.6480 C.ar  401  YTM401     -0.0617
     18  C14      -16.6180  -20.7330   -3.3820 C.ar  401  YTM401     -0.0615
     19  C15      -16.8090  -21.6850   -2.3970 C.ar  401  YTM401     -0.0585
     20  C16      -16.0590  -26.1560   -1.2820 C.ar  401  YTM401     -0.0120
     21  C17      -14.0380  -29.1370   -0.8750 C.ar  401  YTM401     -0.0395
     22  C18      -12.8130  -29.6060   -0.4100 C.ar  401  YTM401      0.0060
     23  C19      -12.2560  -30.9160   -0.9700 C.ar  401  YTM401      0.0640
     24  C20      -11.6360  -31.9410   -0.2400 C.ar  401  YTM401      0.2617
     25  C21      -12.3440  -31.0640   -2.3490 C.ar  401  YTM401      0.0193
     26  C22      -11.3050  -33.1290   -2.2250 C.ar  401  YTM401      0.3267
     27  C23      -12.1160  -28.8540    0.5190 C.ar  401  YTM401      0.0212
     28  C24      -11.9060  -26.9550    1.9610 C.ar  401  YTM401      0.0675
     29  C25      -10.8190  -26.1460    1.7030 C.ar  401  YTM401     -0.0348
     30  C26      -10.2190  -25.4950    2.7780 C.ar  401  YTM401     -0.0416
     31  C27      -10.7160  -25.6820    4.0710 C.ar  401  YTM401      0.0277
     32  C28      -12.3530  -27.1110    3.2660 C.ar  401  YTM401      0.0514
     33  N1       -11.1960  -33.0220   -0.8930 N.ar  401  YTM401     -0.2746
     34  N2       -11.8730  -32.1600   -2.9510 N.ar  401  YTM401     -0.3137
     35  N3       -12.6190  -27.6950    0.9500 N.ar  401  YTM401     -0.2816
     36  N4       -11.7820  -26.4810    4.2940 N.ar  401  YTM401     -0.2612
     37 CL1       -19.6070  -29.0320   -1.6950 Cl    401  YTM401     -0.0834
     38  H1       -16.8430  -29.2610   -0.7420 H     401  YTM401      0.0638
     39  H2       -19.1490  -26.3610   -2.2320 H     401  YTM401      0.0669
     40  H4       -18.8630  -24.6830   -0.7680 H     401  YTM401      0.0700
     41  H3       -19.3370  -23.7870   -1.9850 H     401  YTM401      0.0700
     42  H6       -18.9080  -22.4780   -0.0150 H     401  YTM401      0.0346
     43  H5       -17.3820  -22.8870   -0.1300 H     401  YTM401      0.0346
     44  H7       -19.8160  -20.8090   -1.4700 H     401  YTM401      0.0620
     45  H8       -19.4940  -19.2140   -3.1400 H     401  YTM401      0.0618
     46  H9       -17.4960  -19.1740   -4.3100 H     401  YTM401      0.0618
     47  H10      -15.8220  -20.7080   -3.8620 H     401  YTM401      0.0618
     48  H11      -16.1480  -22.3130   -2.2120 H     401  YTM401      0.0620
     49  H12      -15.3630  -25.5460   -1.1890 H     401  YTM401      0.0660
     50  H13      -14.5120  -29.6220   -1.5110 H     401  YTM401      0.0632
     51  H15      -12.7360  -30.3910   -2.8590 H     401  YTM401      0.0816
     52  H17      -11.2990  -29.1560    0.8430 H     401  YTM401      0.0820
     53  H18      -10.4970  -26.0390    0.8370 H     401  YTM401      0.0639
     54  H19       -9.4890  -24.9370    2.6360 H     401  YTM401      0.0633
     55  H20      -10.3070  -25.2510    4.7860 H     401  YTM401      0.0829
     56  H21      -13.0750  -27.6740    3.4290 H     401  YTM401      0.0851
     57  H14      -10.8360  -33.6640   -0.4480 H     401  YTM401      0.1734
     58  H16      -11.9350  -32.2430   -3.8050 H     401  YTM401      0.1698
@<TRIPOS>BOND
     1    46    17    1
     2    47    18    1
     3    58    34    1
     4    17    18   ar
     5    17    16   ar
     6    18    19   ar
     7    45    16    1
     8    34    25   ar
     9    34    26   ar
    10    16    15   ar
    11    13    26    2
    12    51    25    1
    13    19    48    1
    14    19    14   ar
    15    25    23   ar
    16    39     6    1
    17    26    33   ar
    18     8     9    1
    19     8    10    1
    20    41    10    1
    21    15    14   ar
    22    15    44    1
    23     6     9   ar
    24     6     5   ar
    25     9    20   ar
    26    37     5    1
    27    14    11    1
    28    50    21    1
    29     5     4   ar
    30    10    40    1
    31    10    11    1
    32    20    49    1
    33    20     3   ar
    34     4     3   ar
    35     4    38    1
    36    23    22    1
    37    23    24   ar
    38     3     2    1
    39    33    57    1
    40    33    24   ar
    41    21    22   ar
    42    21     2   ar
    43    11    43    1
    44    11    42    1
    45    22    27   ar
    46     2     1   ar
    47    24    12    2
    48    27    52    1
    49    27    35   ar
    50     1    35   ar
    51     1     7    2
    52    53    29    1
    53    35    28    1
    54    29    28   ar
    55    29    30   ar
    56    28    32   ar
    57    54    30    1
    58    30    31   ar
    59    32    56    1
    60    32    36   ar
    61    31    36   ar
    62    31    55    1
