W0D
  -OEChem-02242320043D

 29 31  0     0  0  0  0  0  0999 V2000
   -1.9360    0.7650    1.0620 N   0  0  0  0  0  0  0  0  0  0  0  0
   -4.2270   -0.3080    1.3800 C   0  0  0  0  0  0  0  0  0  0  0  0
   -5.2530   -0.9210    0.6940 C   0  0  0  0  0  0  0  0  0  0  0  0
   -5.1680   -1.1070   -0.6790 C   0  0  0  0  0  0  0  0  0  0  0  0
   -4.0690   -0.6870   -1.3720 C   0  0  0  0  0  0  0  0  0  0  0  0
   -3.0170   -0.0620   -0.6980 C   0  0  0  0  0  0  0  0  0  0  0  0
    4.8940    0.1060   -0.0110 C   0  0  0  0  0  0  0  0  0  0  0  0
    2.8140    2.0900   -0.1530 O   0  0  0  0  0  0  0  0  0  0  0  0
    2.5050    0.9160   -0.0670 C   0  0  0  0  0  0  0  0  0  0  0  0
    3.5470   -0.1140    0.0060 C   0  0  0  0  0  0  0  0  0  0  0  0
    3.3420   -1.4440    0.1010 O   0  0  0  0  0  0  0  0  0  0  0  0
    4.5230   -2.0740    0.1460 C   0  0  0  0  0  0  0  0  0  0  0  0
    5.5090   -1.1530    0.0790 C   0  0  0  0  0  0  0  0  0  0  0  0
    1.2050    0.5620   -0.0400 N   0  0  0  0  0  0  0  0  0  0  0  0
    0.1640    1.5900   -0.1130 C   0  0  0  0  0  0  0  0  0  0  0  0
   -1.1930    0.9360   -0.0650 C   0  0  0  0  0  0  0  0  0  0  0  0
   -1.8240    0.4520   -1.0940 N   0  0  0  0  0  0  0  0  0  0  0  0
   -3.1020    0.1260    0.6920 C   0  0  0  0  0  0  0  0  0  0  0  0
   -1.6890    1.0380    1.9600 H   0  0  0  0  0  0  0  0  0  0  0  0
   -4.2980   -0.1660    2.4490 H   0  0  0  0  0  0  0  0  0  0  0  0
   -6.1290   -1.2590    1.2280 H   0  0  0  0  0  0  0  0  0  0  0  0
   -5.9790   -1.5900   -1.2040 H   0  0  0  0  0  0  0  0  0  0  0  0
   -4.0130   -0.8370   -2.4410 H   0  0  0  0  0  0  0  0  0  0  0  0
    5.3910    1.0620   -0.0840 H   0  0  0  0  0  0  0  0  0  0  0  0
    4.6630   -3.1420    0.2230 H   0  0  0  0  0  0  0  0  0  0  0  0
    6.5710   -1.3490    0.0880 H   0  0  0  0  0  0  0  0  0  0  0  0
    0.9580   -0.3740    0.0270 H   0  0  0  0  0  0  0  0  0  0  0  0
    0.2690    2.2730    0.7290 H   0  0  0  0  0  0  0  0  0  0  0  0
    0.2660    2.1450   -1.0460 H   0  0  0  0  0  0  0  0  0  0  0  0
  4  5  2  0  0  0  0
  5  6  1  0  0  0  0
  3  4  1  0  0  0  0
  6 17  1  0  0  0  0
  6 18  2  0  0  0  0
  2  3  2  0  0  0  0
 16 17  2  0  0  0  0
  2 18  1  0  0  0  0
  1 18  1  0  0  0  0
  1 16  1  0  0  0  0
 15 16  1  0  0  0  0
 14 15  1  0  0  0  0
  9 14  1  0  0  0  0
  8  9  2  0  0  0  0
  9 10  1  0  0  0  0
 10 11  1  0  0  0  0
  7 10  2  0  0  0  0
 11 12  1  0  0  0  0
  7 13  1  0  0  0  0
 12 13  2  0  0  0  0
  1 19  1  0  0  0  0
  2 20  1  0  0  0  0
  3 21  1  0  0  0  0
  4 22  1  0  0  0  0
  5 23  1  0  0  0  0
  7 24  1  0  0  0  0
 12 25  1  0  0  0  0
 13 26  1  0  0  0  0
 14 27  1  0  0  0  0
 15 28  1  0  0  0  0
 15 29  1  0  0  0  0
M  END
> <OPENEYE_ISO_SMILES>
c1ccc2c(c1)[nH]c(n2)CNC(=O)c3ccco3

> <OPENEYE_INCHI>
InChI=1S/C13H11N3O2/c17-13(11-6-3-7-18-11)14-8-12-15-9-4-1-2-5-10(9)16-12/h1-7H,8H2,(H,14,17)(H,15,16)

> <OPENEYE_INCHIKEY>
WFEIYWNIMQWEHE-UHFFFAOYSA-N

> <FORMULA>
C13H11N3O2

$$$$
