A3R
  -OEChem-02242320013D

 58 61  0     1  0  0  0  0  0999 V2000
   -7.3400    2.7500    0.3750 C   0  0  0  0  0  0  0  0  0  0  0  0
   -7.9890    3.3670   -0.8820 C   0  0  1  0  0  0  0  0  0  0  0  0
   -8.0690    4.7870   -0.7520 O   0  0  0  0  0  0  0  0  0  0  0  0
   -7.0480    2.9870   -2.0460 C   0  0  0  0  0  0  0  0  0  0  0  0
   -6.3340    1.7740   -1.5700 N   0  0  0  0  0  0  0  0  0  0  0  0
   -6.0630    2.0490   -0.1360 C   0  0  2  0  0  0  0  0  0  0  0  0
   -5.8310    0.7420    0.6240 C   0  0  0  0  0  0  0  0  0  0  0  0
   -4.6250    0.1300    0.1620 O   0  0  0  0  0  0  0  0  0  0  0  0
   -4.0710   -1.2650    0.7440 P   0  0  2  0  0  0  0  0  0  0  0  0
   -5.1020   -2.4470    0.3780 O   0  0  0  0  0  0  0  0  0  0  0  0
   -3.9360   -1.1680    2.2150 O   0  0  0  0  0  0  0  0  0  0  0  0
   -2.6340   -1.5860    0.0930 O   0  0  0  0  0  0  0  0  0  0  0  0
   -1.4460   -2.6110    0.4540 P   0  0  1  0  0  0  0  0  0  0  0  0
   -1.2700   -2.6650    1.9230 O   0  0  0  0  0  0  0  0  0  0  0  0
   -1.8170   -4.0780   -0.0970 O   0  0  0  0  0  0  0  0  0  0  0  0
   -0.0780   -2.1110   -0.2320 O   0  0  0  0  0  0  0  0  0  0  0  0
    1.1810   -2.7500   -0.0150 C   0  0  0  0  0  0  0  0  0  0  0  0
    2.2660   -2.0240   -0.8130 C   0  0  1  0  0  0  0  0  0  0  0  0
    2.5170   -0.7190   -0.2480 O   0  0  0  0  0  0  0  0  0  0  0  0
    3.6120   -2.7720   -0.6930 C   0  0  1  0  0  0  0  0  0  0  0  0
    3.8300   -3.5980   -1.8390 O   0  0  0  0  0  0  0  0  0  0  0  0
    4.6650   -1.6430   -0.6310 C   0  0  1  0  0  0  0  0  0  0  0  0
    5.5670   -1.7380   -1.7350 O   0  0  0  0  0  0  0  0  0  0  0  0
    3.8300   -0.3460   -0.7200 C   0  0  2  0  0  0  0  0  0  0  0  0
    4.4060    0.6910    0.1390 N   0  0  0  0  0  0  0  0  0  0  0  0
    4.0310    0.9790    1.4170 C   0  0  0  0  0  0  0  0  0  0  0  0
    4.7520    1.9590    1.8820 N   0  0  0  0  0  0  0  0  0  0  0  0
    5.6320    2.3600    0.9340 C   0  0  0  0  0  0  0  0  0  0  0  0
    5.4250    1.5480   -0.1940 C   0  0  0  0  0  0  0  0  0  0  0  0
    6.1720    1.7410   -1.2760 N   0  0  0  0  0  0  0  0  0  0  0  0
    7.0960    2.6790   -1.2940 C   0  0  0  0  0  0  0  0  0  0  0  0
    7.3270    3.4670   -0.2590 N   0  0  0  0  0  0  0  0  0  0  0  0
    6.6350    3.3420    0.8680 C   0  0  0  0  0  0  0  0  0  0  0  0
    6.8840    4.1720    1.9480 N   0  0  0  0  0  0  0  0  0  0  0  0
   -7.0840    3.5300    1.0910 H   0  0  0  0  0  0  0  0  0  0  0  0
   -8.0140    2.0250    0.8310 H   0  0  0  0  0  0  0  0  0  0  0  0
   -8.9810    2.9450   -1.0420 H   0  0  0  0  0  0  0  0  0  0  0  0
   -8.4690    5.2300   -1.5130 H   0  0  0  0  0  0  0  0  0  0  0  0
   -7.6250    2.7620   -2.9430 H   0  0  0  0  0  0  0  0  0  0  0  0
   -6.3420    3.7940   -2.2420 H   0  0  0  0  0  0  0  0  0  0  0  0
   -6.9080    0.9510   -1.6780 H   0  0  0  0  0  0  0  0  0  0  0  0
   -5.2010    2.7080   -0.0320 H   0  0  0  0  0  0  0  0  0  0  0  0
   -5.7480    0.9510    1.6900 H   0  0  0  0  0  0  0  0  0  0  0  0
   -6.6700    0.0670    0.4510 H   0  0  0  0  0  0  0  0  0  0  0  0
   -5.2390   -2.5680   -0.5720 H   0  0  0  0  0  0  0  0  0  0  0  0
   -1.9470   -4.1170   -1.0540 H   0  0  0  0  0  0  0  0  0  0  0  0
    1.4270   -2.7170    1.0470 H   0  0  0  0  0  0  0  0  0  0  0  0
    1.1220   -3.7880   -0.3420 H   0  0  0  0  0  0  0  0  0  0  0  0
    1.9720   -1.9370   -1.8590 H   0  0  0  0  0  0  0  0  0  0  0  0
    3.6370   -3.3710    0.2180 H   0  0  0  0  0  0  0  0  0  0  0  0
    4.6620   -4.0900   -1.8160 H   0  0  0  0  0  0  0  0  0  0  0  0
    5.2110   -1.6810    0.3120 H   0  0  0  0  0  0  0  0  0  0  0  0
    6.0740   -2.5610   -1.7590 H   0  0  0  0  0  0  0  0  0  0  0  0
    3.7770    0.0000   -1.7530 H   0  0  0  0  0  0  0  0  0  0  0  0
    3.2510    0.4710    1.9640 H   0  0  0  0  0  0  0  0  0  0  0  0
    7.6860    2.8100   -2.1890 H   0  0  0  0  0  0  0  0  0  0  0  0
    7.5710    4.8540    1.8860 H   0  0  0  0  0  0  0  0  0  0  0  0
    6.3720    4.0710    2.7650 H   0  0  0  0  0  0  0  0  0  0  0  0
 31 32  2  0  0  0  0
 32 33  1  0  0  0  0
 30 31  1  0  0  0  0
 33 34  1  0  0  0  0
 28 33  2  0  0  0  0
 29 30  2  0  0  0  0
 28 29  1  0  0  0  0
 27 28  1  0  0  0  0
 25 29  1  0  0  0  0
 26 27  2  0  0  0  0
 24 25  1  0  0  0  0
 25 26  1  0  0  0  0
 22 23  1  0  0  0  0
 22 24  1  0  0  0  0
 19 24  1  0  0  0  0
 20 22  1  0  0  0  0
 18 19  1  0  0  0  0
 18 20  1  0  0  0  0
 17 18  1  0  0  0  0
 20 21  1  0  0  0  0
 16 17  1  0  0  0  0
 13 16  1  0  0  0  0
  9 11  2  0  0  0  0
 13 14  2  0  0  0  0
 13 15  1  0  0  0  0
 12 13  1  0  0  0  0
  4  5  1  0  0  0  0
  5  6  1  0  0  0  0
  6  7  1  0  0  0  0
  7  8  1  0  0  0  0
  9 12  1  0  0  0  0
  8  9  1  0  0  0  0
  9 10  1  0  0  0  0
  2  4  1  0  0  0  0
  1  6  1  0  0  0  0
  1  2  1  0  0  0  0
  2  3  1  0  0  0  0
  1 35  1  0  0  0  0
  1 36  1  0  0  0  0
  2 37  1  0  0  0  0
  3 38  1  0  0  0  0
  4 39  1  0  0  0  0
  4 40  1  0  0  0  0
  5 41  1  0  0  0  0
  6 42  1  0  0  0  0
  7 43  1  0  0  0  0
  7 44  1  0  0  0  0
 10 45  1  0  0  0  0
 15 46  1  0  0  0  0
 17 47  1  0  0  0  0
 17 48  1  0  0  0  0
 18 49  1  0  0  0  0
 20 50  1  0  0  0  0
 21 51  1  0  0  0  0
 22 52  1  0  0  0  0
 23 53  1  0  0  0  0
 24 54  1  0  0  0  0
 26 55  1  0  0  0  0
 31 56  1  0  0  0  0
 34 57  1  0  0  0  0
 34 58  1  0  0  0  0
M  END
> <OPENEYE_ISO_SMILES>
c1nc(c2c(n1)n(cn2)[C@H]3[C@@H]([C@@H]([C@H](O3)CO[P@](=O)(O)O[P@](=O)(O)OC[C@@H]4C[C@H](CN4)O)O)O)N

> <OPENEYE_INCHI>
InChI=1S/C15H24N6O11P2/c16-13-10-14(19-5-18-13)21(6-20-10)15-12(24)11(23)9(31-15)4-30-34(27,28)32-33(25,26)29-3-7-1-8(22)2-17-7/h5-9,11-12,15,17,22-24H,1-4H2,(H,25,26)(H,27,28)(H2,16,18,19)/t7-,8+,9+,11+,12+,15+/m0/s1

> <OPENEYE_INCHIKEY>
PHEYQOBMMIEFLO-IBCGMDAMSA-N

> <FORMULA>
C15H24N6O11P2

$$$$
