MLT
  -OEChem-02242320033D

 15 14  0     1  0  0  0  0  0999 V2000
    1.8710    0.1840    0.0570 C   0  0  0  0  0  0  0  0  0  0  0  0
    2.6370   -0.5120   -0.5650 O   0  0  0  0  0  0  0  0  0  0  0  0
    2.2640    1.3920    0.4910 O   0  0  0  0  0  0  0  0  0  0  0  0
    0.4730   -0.3000    0.3420 C   0  0  2  0  0  0  0  0  0  0  0  0
    0.3310   -1.6450   -0.1210 O   0  0  0  0  0  0  0  0  0  0  0  0
   -0.5340    0.5970   -0.3810 C   0  0  0  0  0  0  0  0  0  0  0  0
   -1.9340    0.1890    0.0000 C   0  0  0  0  0  0  0  0  0  0  0  0
   -2.1080   -0.7250    0.7710 O   0  0  0  0  0  0  0  0  0  0  0  0
   -2.9870    0.8410   -0.5160 O   0  0  0  0  0  0  0  0  0  0  0  0
    0.2870   -0.2640    1.4150 H   0  0  0  0  0  0  0  0  0  0  0  0
    0.4830   -1.7520   -1.0700 H   0  0  0  0  0  0  0  0  0  0  0  0
   -0.3670    1.6350   -0.0950 H   0  0  0  0  0  0  0  0  0  0  0  0
   -0.4060    0.4920   -1.4590 H   0  0  0  0  0  0  0  0  0  0  0  0
   -3.8660    0.5440   -0.2420 H   0  0  0  0  0  0  0  0  0  0  0  0
    3.1690    1.6610    0.2810 H   0  0  0  0  0  0  0  0  0  0  0  0
  1  2  2  0  0  0  0
  1  3  1  0  0  0  0
  1  4  1  0  0  0  0
  4  5  1  0  0  0  0
  4  6  1  0  0  0  0
  4 10  1  0  0  0  0
  5 11  1  0  0  0  0
  6  7  1  0  0  0  0
  6 12  1  0  0  0  0
  6 13  1  0  0  0  0
  7  8  2  0  0  0  0
  7  9  1  0  0  0  0
  9 14  1  0  0  0  0
  3 15  1  0  0  0  0
M  END
> <OPENEYE_ISO_SMILES>
C([C@H](C(=O)O)O)C(=O)O

> <OPENEYE_INCHI>
InChI=1S/C4H6O5/c5-2(4(8)9)1-3(6)7/h2,5H,1H2,(H,6,7)(H,8,9)/t2-/m1/s1

> <OPENEYE_INCHIKEY>
BJEPYKJPYRNKOW-UWTATZPHSA-N

> <FORMULA>
C4H6O5

$$$$
