@<TRIPOS>MOLECULE
/home/pku/3cl/gett_pdb/7FAZ/7FAZ_mol2/ligand/7FAZ_2RI.pdb
 38 42 0 0 0
SMALL
GASTEIGER

@<TRIPOS>ATOM
      1  C10       20.1100    6.8620  -25.6520 C.3   401  2RI401      0.1818
      2  C13       16.5180    7.3870  -24.4200 C.ar  401  2RI401      0.0204
      3  C20       23.1580    4.3230  -28.2150 C.ar  401  2RI401      0.1465
      4  C22       24.5630    3.6390  -29.7920 C.ar  401  2RI401      0.1453
      5  C24       26.5620    5.0100  -29.5670 C.ar  401  2RI401      0.0031
      6  C26       26.4540    3.3040  -31.3010 C.ar  401  2RI401      0.0031
      7  C28       24.3040    5.1060  -28.0860 C.ar  401  2RI401      0.0376
      8  C02       22.8870    6.4500  -31.6080 C.ar  401  2RI401      0.1401
      9  C03       23.3190    7.1100  -30.4670 C.ar  401  2RI401      0.0294
     10  C04       22.4060    7.7970  -29.6860 C.ar  401  2RI401     -0.0003
     11  C05       21.0650    7.8220  -30.0450 C.ar  401  2RI401     -0.0024
     12  C06       20.0760    8.5950  -29.1800 C.3   401  2RI401      0.1176
     13  C07       20.3030   10.1000  -29.3570 C.3   401  2RI401      0.0283
     14  C09       19.9220    7.0170  -27.1700 C.2   401  2RI401      0.2644
     15  C11       18.6650    6.5710  -25.1850 C.ar  401  2RI401      0.0241
     16  C12       17.8460    7.6360  -24.8120 C.ar  401  2RI401      0.0010
     17  C14       16.0460    6.0800  -24.4120 C.ar  401  2RI401      0.0989
     18  C16       18.1320    5.2830  -25.1500 C.ar  401  2RI401      0.0967
     19  C18       22.1060    5.4900  -26.3670 C.ar  401  2RI401      0.0577
     20  C19       22.0520    4.5050  -27.3440 C.ar  401  2RI401      0.0524
     21  C23       25.2570    4.6500  -29.1460 C.ar  401  2RI401      0.0375
     22  C25       27.1580    4.3290  -30.6400 C.ar  401  2RI401      0.0002
     23  C27       25.1660    2.9590  -30.8950 C.ar  401  2RI401      0.0375
     24  C29       24.3710    6.0940  -27.0870 C.ar  401  2RI401      0.0044
     25  C30       23.2680    6.2780  -26.2480 C.ar  401  2RI401      0.0151
     26  C31       21.1070    5.1040  -24.0670 C.2   401  2RI401      0.2604
     27  C32       22.0320    3.9310  -23.6870 C.3   401  2RI401      0.2280
     28  C34       23.5240    4.0990  -23.8470 C.3   401  2RI401      0.0456
     29  C37       20.6280    7.1710  -31.1920 C.ar  401  2RI401     -0.0003
     30  C38       21.5390    6.4750  -31.9770 C.ar  401  2RI401      0.0294
     31  F01       23.8010    5.7690  -32.3550 F     401  2RI401     -0.2042
     32  N08       20.2380    8.3000  -27.7680 N.am  401  2RI401     -0.2010
     33  N15       16.8560    5.0930  -24.7680 N.ar  401  2RI401     -0.2426
     34  N17       21.0730    5.7960  -25.3700 N.am  401  2RI401     -0.2458
     35  O21       23.3450    3.4720  -29.2290 O.2   401  2RI401     -0.4535
     36  O33       21.8660    3.8040  -22.2960 O.3   401  2RI401     -0.2132
     37  O35       20.3110    5.3880  -23.2260 O.2   401  2RI401     -0.2718
     38  O36       19.5020    6.1320  -27.8580 O.2   401  2RI401     -0.2712
@<TRIPOS>BOND
     1    31     8    1
     2    30     8   ar
     3    30    29   ar
     4     8     9   ar
     5     6    23   ar
     6     6    22   ar
     7    29    11   ar
     8    23     4   ar
     9    22     5   ar
    10     9    10   ar
    11    11    10   ar
    12    11    12    1
    13     4    35   ar
    14     4    21   ar
    15     5    21   ar
    16    13    12    1
    17    35     3   ar
    18    12    32    1
    19    21     7   ar
    20     3     7   ar
    21     3    20   ar
    22     7    24   ar
    23    38    14    2
    24    32    14   am
    25    20    19   ar
    26    14     1    1
    27    24    25   ar
    28    19    25   ar
    29    19    34    1
    30     1    34    1
    31     1    15    1
    32    34    26   am
    33    15    18   ar
    34    15    16   ar
    35    18    33   ar
    36    16     2   ar
    37    33    17   ar
    38     2    17   ar
    39    26    27    1
    40    26    37    2
    41    28    27    1
    42    27    36    1
