@<TRIPOS>MOLECULE
/home/pku/3cl/gett_pdb/5RV0/5RV0_mol2/ligand/5RV0_W6V.pdb
 22 23 0 0 0
SMALL
GASTEIGER

@<TRIPOS>ATOM
      1  C10      -39.9610  -35.4300   -7.7120 C.ar  201  W6V201     -0.0496
      2  C13      -41.0090  -33.0240   -8.5740 C.ar  201  W6V201     -0.0610
      3  C02      -41.5490  -35.5300   -5.7910 C.2   201  W6V201      0.2497
      4  C04      -41.4410  -37.3540   -4.0700 C.ar  201  W6V201      0.1646
      5  C06      -41.6970  -38.9060   -2.4440 C.ar  201  W6V201      0.0368
      6  C07      -42.8540  -38.2220   -2.1270 C.ar  201  W6V201     -0.0030
      7  C09      -40.9860  -34.8320   -7.0130 C.ar  201  W6V201      0.0371
      8  C11      -39.4420  -34.8260   -8.8370 C.ar  201  W6V201     -0.0610
      9  C12      -39.9670  -33.6240   -9.2730 C.ar  201  W6V201     -0.0617
     10  C14      -41.5290  -33.6360   -7.4440 C.ar  201  W6V201     -0.0496
     11  N03      -40.8690  -36.6700   -5.2140 N.am  201  W6V201     -0.2607
     12  N05      -40.9940  -38.4270   -3.4570 N.ar  201  W6V201     -0.2330
     13  O01      -42.5520  -35.1200   -5.3450 O.2   201  W6V201     -0.2698
     14  S08      -42.9020  -36.9560   -3.2800 S.2   201  W6V201     -0.0605
     15 H101      -39.6110  -36.2390   -7.4180 H     201  W6V201      0.0625
     16 H131      -41.3600  -32.2150   -8.8670 H     201  W6V201      0.0618
     17 H061      -41.4210  -39.6520   -1.9640 H     201  W6V201      0.0835
     18 H071      -43.4660  -38.4100   -1.4540 H     201  W6V201      0.0709
     19 H111      -38.7440  -35.2260   -9.3010 H     201  W6V201      0.0618
     20 H121      -39.6180  -33.2120  -10.0290 H     201  W6V201      0.0618
     21 H141      -42.2260  -33.2400   -6.9740 H     201  W6V201      0.0625
     22 H031      -40.1360  -36.9650   -5.5730 H     201  W6V201      0.1571
@<TRIPOS>BOND
     1    20     9    1
     2    19     8    1
     3     9     8   ar
     4     9     2   ar
     5    16     2    1
     6     8     1   ar
     7     2    10   ar
     8     1    15    1
     9     1     7   ar
    10    10     7   ar
    11    10    21    1
    12     7     3    1
    13     3    13    2
    14     3    11   am
    15    22    11    1
    16    11     4    1
    17     4    12   ar
    18     4    14   ar
    19    12     5   ar
    20    14     6   ar
    21     5     6   ar
    22     5    17    1
    23     6    18    1
