I70
  -OEChem-02242320023D

 85 87  0     1  0  0  0  0  0999 V2000
    4.0870    2.3190    1.3330 C   0  0  0  0  0  0  0  0  0  0  0  0
   -2.5980    0.0570    0.5800 C   0  0  2  0  0  0  0  0  0  0  0  0
   -1.2580   -0.3050   -0.0070 C   0  0  0  0  0  0  0  0  0  0  0  0
   -0.4180    2.0900    0.1300 C   0  0  0  0  0  0  0  0  0  0  0  0
    0.9790    0.5150   -0.8920 C   0  0  2  0  0  0  0  0  0  0  0  0
    2.0800    0.4460    0.1340 C   0  0  0  0  0  0  0  0  0  0  0  0
    0.2010    2.8290   -1.0760 C   0  0  2  0  0  0  0  0  0  0  0  0
    4.3680   -0.0830    0.7850 C   0  0  1  0  0  0  0  0  0  0  0  0
   -0.1180    2.3120   -2.4800 C   0  0  0  0  0  0  0  0  0  0  0  0
    5.3800   -1.1550    0.3750 C   0  0  0  0  0  0  0  0  0  0  0  0
    4.7240   -2.5350    0.4630 C   0  0  2  0  0  0  0  0  0  0  0  0
    5.7370   -3.6400    0.0830 C   0  0  0  0  0  0  0  0  0  0  0  0
    5.4490   -3.8270   -1.4230 C   0  0  0  0  0  0  0  0  0  0  0  0
   -1.3030    1.3560   -2.6270 C   0  0  0  0  0  0  0  0  0  0  0  0
    3.6270   -2.6660   -0.5710 C   0  0  0  0  0  0  0  0  0  0  0  0
    0.1060    3.2690   -3.6520 C   0  0  0  0  0  0  0  0  0  0  0  0
   -2.2870   -1.4900    2.5170 C   0  0  0  0  0  0  0  0  0  0  0  0
   -7.7310   -0.5780    0.9320 C   0  0  0  0  0  0  0  0  0  0  0  0
   -8.0990   -2.0740   -1.0350 C   0  0  0  0  0  0  0  0  0  0  0  0
   -7.3890    0.2960   -1.3840 C   0  0  0  0  0  0  0  0  0  0  0  0
   -2.5290   -0.0360    2.1060 C   0  0  0  0  0  0  0  0  0  0  0  0
   -1.3820    0.8370    2.6180 C   0  0  0  0  0  0  0  0  0  0  0  0
   -3.8490    0.4510    2.7070 C   0  0  0  0  0  0  0  0  0  0  0  0
    1.1220    1.7910   -1.7500 C   0  0  2  0  0  0  0  0  0  0  0  0
   -7.2510   -0.9290   -0.4780 C   0  0  0  0  0  0  0  0  0  0  0  0
    5.0700    1.2740    0.8720 C   0  0  1  0  0  0  0  0  0  0  0  0
   -4.9090   -0.4890    0.0330 C   0  0  0  0  0  0  0  0  0  0  0  0
   -3.6170   -0.8690    0.0800 N   0  0  0  0  0  0  0  0  0  0  0  0
   -0.3390    0.6560   -0.2310 N   0  0  0  0  0  0  0  0  0  0  0  0
    3.2970   -0.0160   -0.2130 N   0  0  0  0  0  0  0  0  0  0  0  0
    3.5370    2.2320    2.5610 N   0  0  0  0  0  0  0  0  0  0  0  0
    4.0580   -3.3980   -1.6120 N   0  0  0  0  0  0  0  0  0  0  0  0
   -5.8460   -1.3420   -0.4270 N   0  0  0  0  0  0  0  0  0  0  0  0
    2.5200   -2.1810   -0.4740 O   0  0  0  0  0  0  0  0  0  0  0  0
   -5.2290    0.6230    0.4060 O   0  0  0  0  0  0  0  0  0  0  0  0
   -1.0070   -1.4590   -0.2780 O   0  0  0  0  0  0  0  0  0  0  0  0
    1.8710    0.8070    1.2730 O   0  0  0  0  0  0  0  0  0  0  0  0
    3.7940    3.2410    0.6020 O   0  0  0  0  0  0  0  0  0  0  0  0
    5.5760    1.6320   -0.4160 O   0  0  0  0  0  0  0  0  0  0  0  0
   -2.8590    1.0750    0.2900 H   0  0  0  0  0  0  0  0  0  0  0  0
    0.1590    2.2870    1.0330 H   0  0  0  0  0  0  0  0  0  0  0  0
   -1.4560    2.3910    0.2680 H   0  0  0  0  0  0  0  0  0  0  0  0
    0.9940   -0.3720   -1.5250 H   0  0  0  0  0  0  0  0  0  0  0  0
    0.5120    3.8640   -0.9300 H   0  0  0  0  0  0  0  0  0  0  0  0
    3.9430   -0.3360    1.7560 H   0  0  0  0  0  0  0  0  0  0  0  0
    5.7080   -0.9730   -0.6480 H   0  0  0  0  0  0  0  0  0  0  0  0
    6.2390   -1.1180    1.0450 H   0  0  0  0  0  0  0  0  0  0  0  0
    4.3270   -2.7050    1.4640 H   0  0  0  0  0  0  0  0  0  0  0  0
    6.7610   -3.3040    0.2460 H   0  0  0  0  0  0  0  0  0  0  0  0
    5.5370   -4.5590    0.6360 H   0  0  0  0  0  0  0  0  0  0  0  0
    6.1200   -3.2050   -2.0150 H   0  0  0  0  0  0  0  0  0  0  0  0
    5.5620   -4.8750   -1.7010 H   0  0  0  0  0  0  0  0  0  0  0  0
   -2.1050    1.8520   -3.1730 H   0  0  0  0  0  0  0  0  0  0  0  0
   -0.9880    0.4670   -3.1730 H   0  0  0  0  0  0  0  0  0  0  0  0
   -1.6610    1.0670   -1.6390 H   0  0  0  0  0  0  0  0  0  0  0  0
    0.6190    4.1630   -3.2990 H   0  0  0  0  0  0  0  0  0  0  0  0
    0.7140    2.7780   -4.4120 H   0  0  0  0  0  0  0  0  0  0  0  0
   -0.8560    3.5490   -4.0820 H   0  0  0  0  0  0  0  0  0  0  0  0
   -1.3470   -1.8370    2.0890 H   0  0  0  0  0  0  0  0  0  0  0  0
   -2.2370   -1.5560    3.6040 H   0  0  0  0  0  0  0  0  0  0  0  0
   -3.1040   -2.1120    2.1520 H   0  0  0  0  0  0  0  0  0  0  0  0
   -8.7760   -0.2700    0.8940 H   0  0  0  0  0  0  0  0  0  0  0  0
   -7.6320   -1.4510    1.5770 H   0  0  0  0  0  0  0  0  0  0  0  0
   -7.1260    0.2380    1.3290 H   0  0  0  0  0  0  0  0  0  0  0  0
   -7.7570   -2.3240   -2.0390 H   0  0  0  0  0  0  0  0  0  0  0  0
   -8.0000   -2.9470   -0.3900 H   0  0  0  0  0  0  0  0  0  0  0  0
   -9.1440   -1.7660   -1.0730 H   0  0  0  0  0  0  0  0  0  0  0  0
   -7.0470    0.0460   -2.3880 H   0  0  0  0  0  0  0  0  0  0  0  0
   -8.4340    0.6040   -1.4220 H   0  0  0  0  0  0  0  0  0  0  0  0
   -6.7850    1.1120   -0.9870 H   0  0  0  0  0  0  0  0  0  0  0  0
   -0.4490    0.5230    2.1490 H   0  0  0  0  0  0  0  0  0  0  0  0
   -1.5800    1.8800    2.3710 H   0  0  0  0  0  0  0  0  0  0  0  0
   -1.2980    0.7290    3.7000 H   0  0  0  0  0  0  0  0  0  0  0  0
   -3.7990    0.3850    3.7940 H   0  0  0  0  0  0  0  0  0  0  0  0
   -4.0210    1.4870    2.4140 H   0  0  0  0  0  0  0  0  0  0  0  0
   -4.6660   -0.1700    2.3420 H   0  0  0  0  0  0  0  0  0  0  0  0
    2.1130    2.0550   -2.1180 H   0  0  0  0  0  0  0  0  0  0  0  0
    5.8940    1.2110    1.5820 H   0  0  0  0  0  0  0  0  0  0  0  0
   -3.3610   -1.7570   -0.2170 H   0  0  0  0  0  0  0  0  0  0  0  0
    3.4650   -0.3040   -1.1240 H   0  0  0  0  0  0  0  0  0  0  0  0
    3.8280    1.5390    3.1740 H   0  0  0  0  0  0  0  0  0  0  0  0
    2.8510    2.8620    2.8310 H   0  0  0  0  0  0  0  0  0  0  0  0
    3.5200   -3.6150   -2.3890 H   0  0  0  0  0  0  0  0  0  0  0  0
   -5.5900   -2.2290   -0.7240 H   0  0  0  0  0  0  0  0  0  0  0  0
    6.2160    1.0020   -0.7760 H   0  0  0  0  0  0  0  0  0  0  0  0
 21 23  1  0  0  0  0
 17 21  1  0  0  0  0
  2 21  1  0  0  0  0
 21 22  1  0  0  0  0
  4  7  1  0  0  0  0
  4 29  1  0  0  0  0
 27 35  2  0  0  0  0
  7 24  1  0  0  0  0
  7  9  1  0  0  0  0
  6 37  2  0  0  0  0
  2 28  1  0  0  0  0
  2  3  1  0  0  0  0
 20 25  1  0  0  0  0
 27 28  1  0  0  0  0
 27 33  1  0  0  0  0
  3 29  1  0  0  0  0
  5 29  1  0  0  0  0
  1 31  1  0  0  0  0
  9 24  1  0  0  0  0
  5 24  1  0  0  0  0
  9 16  1  0  0  0  0
  3 36  2  0  0  0  0
 12 13  1  0  0  0  0
 11 12  1  0  0  0  0
  9 14  1  0  0  0  0
  5  6  1  0  0  0  0
  6 30  1  0  0  0  0
 13 32  1  0  0  0  0
 25 33  1  0  0  0  0
 19 25  1  0  0  0  0
 18 25  1  0  0  0  0
 26 39  1  0  0  0  0
  1 26  1  0  0  0  0
  1 38  2  0  0  0  0
  8 30  1  0  0  0  0
  8 26  1  0  0  0  0
  8 10  1  0  0  0  0
 10 11  1  0  0  0  0
 11 15  1  0  0  0  0
 15 32  1  0  0  0  0
 15 34  2  0  0  0  0
  2 40  1  0  0  0  0
  4 41  1  0  0  0  0
  4 42  1  0  0  0  0
  5 43  1  0  0  0  0
  7 44  1  0  0  0  0
  8 45  1  0  0  0  0
 10 46  1  0  0  0  0
 10 47  1  0  0  0  0
 11 48  1  0  0  0  0
 12 49  1  0  0  0  0
 12 50  1  0  0  0  0
 13 51  1  0  0  0  0
 13 52  1  0  0  0  0
 14 53  1  0  0  0  0
 14 54  1  0  0  0  0
 14 55  1  0  0  0  0
 16 56  1  0  0  0  0
 16 57  1  0  0  0  0
 16 58  1  0  0  0  0
 17 59  1  0  0  0  0
 17 60  1  0  0  0  0
 17 61  1  0  0  0  0
 18 62  1  0  0  0  0
 18 63  1  0  0  0  0
 18 64  1  0  0  0  0
 19 65  1  0  0  0  0
 19 66  1  0  0  0  0
 19 67  1  0  0  0  0
 20 68  1  0  0  0  0
 20 69  1  0  0  0  0
 20 70  1  0  0  0  0
 22 71  1  0  0  0  0
 22 72  1  0  0  0  0
 22 73  1  0  0  0  0
 23 74  1  0  0  0  0
 23 75  1  0  0  0  0
 23 76  1  0  0  0  0
 24 77  1  0  0  0  0
 26 78  1  0  0  0  0
 28 79  1  0  0  0  0
 30 80  1  0  0  0  0
 31 81  1  0  0  0  0
 31 82  1  0  0  0  0
 32 83  1  0  0  0  0
 33 84  1  0  0  0  0
 39 85  1  0  0  0  0
M  END
> <OPENEYE_ISO_SMILES>
CC1([C@@H]2[C@H]1[C@H](N(C2)C(=O)[C@H](C(C)(C)C)NC(=O)NC(C)(C)C)C(=O)N[C@@H](C[C@@H]3CCNC3=O)[C@H](C(=O)N)O)C

> <OPENEYE_INCHI>
InChI=1S/C27H46N6O6/c1-25(2,3)19(31-24(39)32-26(4,5)6)23(38)33-12-14-16(27(14,7)8)17(33)22(37)30-15(18(34)20(28)35)11-13-9-10-29-21(13)36/h13-19,34H,9-12H2,1-8H3,(H2,28,35)(H,29,36)(H,30,37)(H2,31,32,39)/t13-,14-,15-,16-,17-,18+,19+/m0/s1

> <OPENEYE_INCHIKEY>
PGHPGMLPXLZINT-UYYZUGKPSA-N

> <FORMULA>
C27H46N6O6

$$$$
