@<TRIPOS>MOLECULE
/home/pku/3cl/gett_pdb/7VVP/7VVP_mol2/ligand/7VVP_80I.pdb
 38 40 0 0 0
SMALL
GASTEIGER

@<TRIPOS>ATOM
      1  C10       23.8260    8.7500   -4.5460 C.2   301  80I301      0.0074
      2  C13       24.9550   10.0060   -2.3670 C.3   301  80I301      0.1749
      3  C15       16.4030   10.7430   -1.3550 C.3   301  80I301      0.1731
      4  C20       14.0310   10.8480   -5.7540 C.3   301  80I301      0.0864
      5  C21       13.4240   10.0590   -6.7240 C.2   301  80I301      0.2453
      6  C24       14.8070   12.0540   -6.5410 C.3   301  80I301      0.0535
      7  C26       12.7780   13.3300   -3.1050 C.2   301  80I301      0.2003
      8  C02       17.9520    9.5210   -2.9460 C.2   301  80I301      0.2829
      9  C03       19.3770    9.2380   -3.4450 C.2   301  80I301      0.1359
     10  C05       20.5520    9.7300   -2.8780 C.2   301  80I301      0.0237
     11  C06       21.6170    9.2340   -3.6650 C.2   301  80I301      0.0280
     12  C07       21.0410    8.4710   -4.6700 C.2   301  80I301      0.0801
     13  C08       21.8590    7.8350   -5.6310 C.2   301  80I301      0.0186
     14  C09       23.2460    7.9810   -5.5600 C.2   301  80I301     -0.0003
     15  C11       23.0190    9.3790   -3.5960 C.3   301  80I301      0.1611
     16  C16       15.7110   11.6550   -2.3690 C.2   301  80I301      0.2616
     17  C18       13.7350   12.3280   -3.7790 C.3   301  80I301      0.1554
     18  C19       13.0040   11.4740   -4.8140 C.3   301  80I301      0.0388
     19  C23       14.7300   11.7740   -7.8670 C.2   301  80I301      0.0627
     20  C27       13.2490   14.0600   -1.8420 C.3   301  80I301      0.2115
     21  C35       16.5030   11.4350    0.0020 C.3   301  80I301      0.0311
     22  C36       17.2070   10.5880    1.0630 C.3   301  80I301      0.0022
     23  C37       17.2870   11.3730    2.3700 C.3   301  80I301      0.0001
     24  C38       16.5190    9.2370    1.2800 C.3   301  80I301      0.0001
     25  N04       19.7040    8.5000   -4.4960 N.2   301  80I301     -0.2410
     26  N14       17.7420   10.4490   -1.8420 N.am  301  80I301     -0.1927
     27  N17       14.3380   11.4250   -2.8020 N.am  301  80I301     -0.1981
     28  N22       13.7860   10.5230   -8.0270 N.am  301  80I301     -0.1826
     29  O01       17.0170    9.0150   -3.4790 O.2   301  80I301     -0.2667
     30  O12       23.5750   10.1620   -2.5710 O.3   301  80I301     -0.3447
     31  O25       12.7220    9.1260   -6.5150 O.2   301  80I301     -0.2730
     32  O28       14.2220   14.9790   -2.2220 O.3   301  80I301     -0.3371
     33  O30       13.3170   17.3390   -1.8120 O.co2 301  80I301     -0.7986
     34  O31       12.5220   16.1080   -3.8170 O.co2 301  80I301     -0.8499
     35  O32       14.8380   16.9630   -3.7650 O.3   301  80I301     -0.2139
     36  O33       11.6620   13.5050   -3.5190 O.2   301  80I301     -0.2916
     37  O34       16.3060   12.5750   -2.8110 O.2   301  80I301     -0.2715
     38  P29       13.7140   16.3840   -2.9230 P.3   301  80I301      0.0270
@<TRIPOS>UNITY_ATOM_ATTR
33 1
charge -1
34 1
charge -1
@<TRIPOS>BOND
     1    28    19    2
     2    28     5    1
     3    19     6    1
     4     5    31    2
     5     5     4    1
     6     6     4    1
     7     4    18    1
     8    13    14    1
     9    13    12    2
    10    14     1    2
    11    18    17    1
    12    12    25    1
    13    12    11    1
    14     1    15    1
    15    25     9    2
    16    34    38    2
    17    17     7    1
    18    17    27    1
    19    35    38    1
    20    11    15    1
    21    11    10    2
    22    15    30    1
    23    36     7    2
    24    29     8    2
    25     9     8    1
    26     9    10    1
    27     7    20    1
    28     8    26   am
    29    38    32    1
    30    38    33    1
    31    37    16    2
    32    27    16   am
    33    30     2    1
    34    16     3    1
    35    32    20    1
    36    26     3    1
    37     3    21    1
    38    21    22    1
    39    22    24    1
    40    22    23    1
