NT9
  -OEChem-02242320033D

 27 28  0     0  0  0  0  0  0999 V2000
    4.0880    1.1350   -0.2360 C   0  0  0  0  0  0  0  0  0  0  0  0
   -1.5850    1.2590    0.3440 C   0  0  0  0  0  0  0  0  0  0  0  0
   -0.2140    1.3220    0.2040 C   0  0  0  0  0  0  0  0  0  0  0  0
    4.4740   -0.1440   -0.2590 C   0  0  0  0  0  0  0  0  0  0  0  0
   -5.8120   -0.1320   -0.6150 C   0  0  0  0  0  0  0  0  0  0  0  0
   -3.7170   -0.0270    0.5940 C   0  0  0  0  0  0  0  0  0  0  0  0
   -2.2200    0.0330    0.4350 C   0  0  0  0  0  0  0  0  0  0  0  0
   -1.4850   -1.1380    0.3790 C   0  0  0  0  0  0  0  0  0  0  0  0
   -0.1140   -1.0900    0.2330 C   0  0  0  0  0  0  0  0  0  0  0  0
    0.5330    0.1440    0.1520 C   0  0  0  0  0  0  0  0  0  0  0  0
    2.0020    0.2030   -0.0050 C   0  0  0  0  0  0  0  0  0  0  0  0
    2.7300    1.3340   -0.0930 C   0  0  0  0  0  0  0  0  0  0  0  0
   -4.3490   -0.0730   -0.7310 N   0  0  0  0  0  0  0  0  0  0  0  0
    3.0710   -1.1910   -0.0940 S   0  0  0  0  0  0  0  0  0  0  0  0
    4.7880    1.9540   -0.3180 H   0  0  0  0  0  0  0  0  0  0  0  0
   -2.1640    2.1700    0.3890 H   0  0  0  0  0  0  0  0  0  0  0  0
    0.2800    2.2800    0.1330 H   0  0  0  0  0  0  0  0  0  0  0  0
    5.4940   -0.4830   -0.3640 H   0  0  0  0  0  0  0  0  0  0  0  0
   -6.2550   -0.1660   -1.6100 H   0  0  0  0  0  0  0  0  0  0  0  0
   -6.0960   -1.0270   -0.0610 H   0  0  0  0  0  0  0  0  0  0  0  0
   -6.1710    0.7510   -0.0870 H   0  0  0  0  0  0  0  0  0  0  0  0
   -3.9870   -0.9210    1.1560 H   0  0  0  0  0  0  0  0  0  0  0  0
   -4.0610    0.8570    1.1300 H   0  0  0  0  0  0  0  0  0  0  0  0
   -1.9860   -2.0920    0.4510 H   0  0  0  0  0  0  0  0  0  0  0  0
    0.4580   -2.0050    0.1890 H   0  0  0  0  0  0  0  0  0  0  0  0
    2.2860    2.3180   -0.0550 H   0  0  0  0  0  0  0  0  0  0  0  0
   -4.0630    0.7130   -1.2960 H   0  0  0  0  0  0  0  0  0  0  0  0
  1  4  2  0  0  0  0
  4 14  1  0  0  0  0
  1 12  1  0  0  0  0
 11 12  2  0  0  0  0
 11 14  1  0  0  0  0
 10 11  1  0  0  0  0
  9 10  2  0  0  0  0
  3 10  1  0  0  0  0
  8  9  1  0  0  0  0
  2  3  2  0  0  0  0
  7  8  2  0  0  0  0
  2  7  1  0  0  0  0
  6  7  1  0  0  0  0
  6 13  1  0  0  0  0
  5 13  1  0  0  0  0
  1 15  1  0  0  0  0
  2 16  1  0  0  0  0
  3 17  1  0  0  0  0
  4 18  1  0  0  0  0
  5 19  1  0  0  0  0
  5 20  1  0  0  0  0
  5 21  1  0  0  0  0
  6 22  1  0  0  0  0
  6 23  1  0  0  0  0
  8 24  1  0  0  0  0
  9 25  1  0  0  0  0
 12 26  1  0  0  0  0
 13 27  1  0  0  0  0
M  END
> <OPENEYE_ISO_SMILES>
CNCc1ccc(cc1)c2cccs2

> <OPENEYE_INCHI>
InChI=1S/C12H13NS/c1-13-9-10-4-6-11(7-5-10)12-3-2-8-14-12/h2-8,13H,9H2,1H3

> <OPENEYE_INCHIKEY>
DRDAOZOONYPMPX-UHFFFAOYSA-N

> <FORMULA>
C12H13NS

$$$$
