@<TRIPOS>MOLECULE
/home/pku/3cl/gett_pdb/5S35/5S35_mol2/ligand/5S35_B1A.pdb
 17 18 0 0 0
SMALL
GASTEIGER

@<TRIPOS>ATOM
      1  N1        -0.4010    8.4200   -7.7570 N.am  501  B1A501     -0.1792
      2  C4         0.4820    9.2060   -9.8680 C.ar  501  B1A501      0.0179
      3  C5         1.5010    9.2680  -10.8030 C.ar  501  B1A501      0.0178
      4  C6         2.6980    8.5920  -10.5820 C.ar  501  B1A501      0.0706
      5  C7         2.8580    7.8510   -9.4170 C.ar  501  B1A501      0.0178
      6  C8         1.8380    7.7860   -8.4840 C.ar  501  B1A501      0.0179
      7  C10        3.2620   10.5700  -12.8960 C.ar  501  B1A501      0.0165
      8  C13        5.1940    9.7150  -14.6880 C.ar  501  B1A501      0.0013
      9  C1        -2.1440    9.1090   -6.2610 C.3   501  B1A501      0.0968
     10  C2        -0.8940    9.4280   -7.0120 C.2   501  B1A501      0.2461
     11  O1        -0.3570   10.5260   -6.9400 O.2   501  B1A501     -0.2730
     12  C3         0.6450    8.4690   -8.7010 C.ar  501  B1A501      0.0734
     13  N2         3.7510    8.5940  -11.5120 N.pl3 501  B1A501     -0.2125
     14  C9         3.9530    9.3840  -12.6560 C.ar  501  B1A501      0.0705
     15  C11        3.5390   11.3140  -14.0310 C.ar  501  B1A501      0.0013
     16  C12        4.5050   10.8920  -14.9240 C.ar  501  B1A501      0.0001
     17  C14        4.9200    8.9560  -13.5630 C.ar  501  B1A501      0.0165
@<TRIPOS>BOND
     1    16     8   ar
     2    16    15   ar
     3     8    17   ar
     4    15     7   ar
     5    17    14   ar
     6     7    14   ar
     7    14    13    1
     8    13     4    1
     9     3     4   ar
    10     3     2   ar
    11     4     5   ar
    12     2    12   ar
    13     5     6   ar
    14    12     6   ar
    15    12     1    1
    16     1    10   am
    17    10    11    2
    18    10     9    1
