@<TRIPOS>MOLECULE
/home/pku/3cl/gett_pdb/5SP7/5SP7_mol2/ligand/5SP7_RVS.pdb
 51 54 0 0 0
SMALL
GASTEIGER

@<TRIPOS>ATOM
      1  C18      -49.3870  -28.8310    6.7630 C.ar  201  RVS201      0.0348
      2  C16      -49.3500  -28.7460    4.3910 C.ar  201  RVS201     -0.0479
      3  C17      -50.0860  -28.7550    5.5660 C.ar  201  RVS201     -0.0397
      4  C15      -47.9720  -28.8730    4.4350 C.ar  201  RVS201      0.0368
      5  C14      -47.1760  -28.8870    3.1310 C.2   201  RVS201      0.2445
      6  C12      -44.9430  -29.5030    2.0740 C.3   201  RVS201      0.0568
      7  C11      -44.1200  -32.6380    0.0410 C.ar  201  RVS201     -0.0583
      8  C10      -45.3140  -33.3440    0.0830 C.ar  201  RVS201     -0.0615
      9  C20      -47.2920  -29.0100    5.6270 C.ar  201  RVS201     -0.0479
     10  C19      -48.0180  -29.0120    6.7960 C.ar  201  RVS201     -0.0397
     11  C02      -43.1590  -30.2810    3.5890 C.2   201  RVS201      0.0469
     12  C03      -43.5130  -29.2180    2.5050 C.3   201  RVS201      0.0214
     13  C04      -42.6550  -29.2370    1.2040 C.3   201  RVS201     -0.0391
     14  C05      -42.6340  -30.6690    0.6100 C.3   201  RVS201     -0.0267
     15  C06      -44.0080  -31.4030    0.6920 C.ar  201  RVS201     -0.0424
     16  C07      -45.0720  -30.8700    1.3820 C.ar  201  RVS201     -0.0234
     17  C08      -46.2880  -31.5800    1.4230 C.ar  201  RVS201     -0.0565
     18  C09      -46.4020  -32.8180    0.7790 C.ar  201  RVS201     -0.0614
     19  C22      -51.4370  -29.0670    8.2320 C.2   201  RVS201      0.3041
     20  C24      -53.1450  -29.4830   10.0020 C.3   201  RVS201      0.0247
     21  C25      -53.2830  -30.6960   10.9280 C.3   201  RVS201     -0.0328
     22  C26      -53.7220  -30.8160    9.4670 C.3   201  RVS201     -0.0328
     23  N13      -45.8220  -29.4180    3.2360 N.am  201  RVS201     -0.3039
     24  N21      -50.0230  -28.9530    8.0410 N.am  201  RVS201     -0.2695
     25  N23      -51.7690  -29.2990    9.6090 N.am  201  RVS201     -0.2963
     26  O01      -43.8160  -30.3280    4.6670 O.co2 201  RVS201     -0.5495
     27  O27      -52.2520  -28.9160    7.3880 O.2   201  RVS201     -0.2525
     28  O28      -47.6490  -28.5110    2.1110 O.2   201  RVS201     -0.2702
     29  O29      -42.2420  -31.1330    3.4440 O.co2 201  RVS201     -0.5495
     30 H161      -49.8570  -28.6520    3.4270 H     201  RVS201      0.0626
     31 H171      -51.1800  -28.6630    5.5370 H     201  RVS201      0.0636
     32 H121      -45.2290  -28.7680    1.3430 H     201  RVS201      0.0555
     33 H111      -43.2680  -33.0390   -0.4960 H     201  RVS201      0.0620
     34 H101      -45.3860  -34.3030   -0.4340 H     201  RVS201      0.0618
     35 H201      -46.2100  -29.1490    5.6360 H     201  RVS201      0.0626
     36 H191      -47.5150  -29.1620    7.7420 H     201  RVS201      0.0636
     37 H031      -43.4240  -28.2300    2.9520 H     201  RVS201      0.0382
     38 H041      -43.1390  -28.5720    0.4620 H     201  RVS201      0.0275
     39 H042      -41.6270  -28.9200    1.3910 H     201  RVS201      0.0275
     40 H051      -42.3880  -30.6030   -0.4360 H     201  RVS201      0.0313
     41 H052      -41.8950  -31.2520    1.1490 H     201  RVS201      0.0313
     42 H081      -47.1330  -31.1730    1.9640 H     201  RVS201      0.0621
     43 H091      -47.3400  -33.3820    0.7980 H     201  RVS201      0.0618
     44 H241      -53.8600  -28.6820   10.1150 H     201  RVS201      0.0499
     45 H252      -52.3460  -31.1990   11.1760 H     201  RVS201      0.0284
     46 H251      -54.0840  -30.6460   11.6580 H     201  RVS201      0.0284
     47 H261      -53.0650  -31.4230    8.8330 H     201  RVS201      0.0284
     48 H262      -54.8040  -30.8680    9.3110 H     201  RVS201      0.0284
     49 H131      -45.4710  -29.7290    4.1060 H     201  RVS201      0.1496
     50 H211      -49.4530  -29.1370    8.8310 H     201  RVS201      0.1564
     51 H231      -51.0510  -29.4260   10.2850 H     201  RVS201      0.1505
@<TRIPOS>UNITY_ATOM_ATTR
26 1
charge -1
@<TRIPOS>BOND
     1    33     7    1
     2    40    14    1
     3    34     8    1
     4     7     8   ar
     5     7    15   ar
     6     8    18   ar
     7    38    13    1
     8    14    15    1
     9    14    41    1
    10    14    13    1
    11    15    16   ar
    12    18    43    1
    13    18    17   ar
    14    13    39    1
    15    13    12    1
    16    32     6    1
    17    16    17   ar
    18    16     6    1
    19    17    42    1
    20     6    12    1
    21     6    23    1
    22    28     5    2
    23    12    37    1
    24    12    11    1
    25     5    23   am
    26     5     4    1
    27    23    49    1
    28    30     2    1
    29    29    11   ar
    30    11    26   ar
    31     2     4   ar
    32     2     3   ar
    33     4     9   ar
    34    31     3    1
    35     3     1   ar
    36     9    35    1
    37     9    10   ar
    38     1    10   ar
    39     1    24    1
    40    10    36    1
    41    27    19    2
    42    24    19   am
    43    24    50    1
    44    19    25   am
    45    47    22    1
    46    48    22    1
    47    22    20    1
    48    22    21    1
    49    25    20    1
    50    25    51    1
    51    20    44    1
    52    20    21    1
    53    21    45    1
    54    21    46    1
