VW1
  -OEChem-02242320043D

 24 24  0     1  0  0  0  0  0999 V2000
   -5.4240   -0.4530    0.3390 N   0  0  0  0  0  0  0  0  0  0  0  0
   -1.0860    1.4910   -0.3250 C   0  0  0  0  0  0  0  0  0  0  0  0
   -2.4380    1.2650   -0.1910 C   0  0  0  0  0  0  0  0  0  0  0  0
   -2.9050   -0.0230    0.0890 C   0  0  0  0  0  0  0  0  0  0  0  0
   -4.3090   -0.2630    0.2280 C   0  0  0  0  0  0  0  0  0  0  0  0
   -1.9960   -1.0750    0.2320 C   0  0  0  0  0  0  0  0  0  0  0  0
    3.3760    0.0990    0.3510 C   0  0  0  0  0  0  0  0  0  0  0  0
    2.1580   -1.2940   -1.3010 C   0  0  0  0  0  0  0  0  0  0  0  0
    2.0210   -0.4280   -0.0470 C   0  0  2  0  0  0  0  0  0  0  0  0
    1.1450    0.6680   -0.3200 O   0  0  0  0  0  0  0  0  0  0  0  0
   -0.1870    0.4410   -0.1870 C   0  0  0  0  0  0  0  0  0  0  0  0
   -0.6460   -0.8400    0.0960 C   0  0  0  0  0  0  0  0  0  0  0  0
    3.5990    1.2900    0.3100 O   0  0  0  0  0  0  0  0  0  0  0  0
    4.3390   -0.7540    0.7530 N   0  0  0  0  0  0  0  0  0  0  0  0
   -0.7250    2.4850   -0.5410 H   0  0  0  0  0  0  0  0  0  0  0  0
   -3.1370    2.0810   -0.3020 H   0  0  0  0  0  0  0  0  0  0  0  0
   -2.3520   -2.0720    0.4480 H   0  0  0  0  0  0  0  0  0  0  0  0
    1.1790   -1.6750   -1.5890 H   0  0  0  0  0  0  0  0  0  0  0  0
    2.5690   -0.6950   -2.1140 H   0  0  0  0  0  0  0  0  0  0  0  0
    2.8260   -2.1300   -1.0930 H   0  0  0  0  0  0  0  0  0  0  0  0
    1.6110   -1.0270    0.7650 H   0  0  0  0  0  0  0  0  0  0  0  0
    0.0570   -1.6530    0.2060 H   0  0  0  0  0  0  0  0  0  0  0  0
    5.2110   -0.4160    1.0090 H   0  0  0  0  0  0  0  0  0  0  0  0
    4.1600   -1.7070    0.7850 H   0  0  0  0  0  0  0  0  0  0  0  0
  8  9  1  0  0  0  0
  9 10  1  0  0  0  0
 10 11  1  0  0  0  0
  2 11  2  0  0  0  0
  2  3  1  0  0  0  0
  3  4  2  0  0  0  0
  4  5  1  0  0  0  0
  1  5  3  0  0  0  0
  4  6  1  0  0  0  0
  6 12  2  0  0  0  0
  7  9  1  0  0  0  0
  7 13  2  0  0  0  0
  7 14  1  0  0  0  0
 11 12  1  0  0  0  0
  2 15  1  0  0  0  0
  3 16  1  0  0  0  0
  6 17  1  0  0  0  0
  8 18  1  0  0  0  0
  8 19  1  0  0  0  0
  8 20  1  0  0  0  0
  9 21  1  0  0  0  0
 12 22  1  0  0  0  0
 14 23  1  0  0  0  0
 14 24  1  0  0  0  0
M  END
> <OPENEYE_ISO_SMILES>
C[C@@H](C(=O)N)Oc1ccc(cc1)C#N

> <OPENEYE_INCHI>
InChI=1S/C10H10N2O2/c1-7(10(12)13)14-9-4-2-8(6-11)3-5-9/h2-5,7H,1H3,(H2,12,13)/t7-/m0/s1

> <OPENEYE_INCHIKEY>
JHIGQTTZYWLCKT-ZETCQYMHSA-N

> <FORMULA>
C10H10N2O2

$$$$
