80I
  -OEChem-02242320013D

 71 73  0     1  0  0  0  0  0999 V2000
    8.7160   -1.2310   -1.2970 C   0  0  0  0  0  0  0  0  0  0  0  0
   10.3320    0.1010    0.4100 C   0  0  0  0  0  0  0  0  0  0  0  0
    0.9540    1.0790    0.7330 C   0  0  2  0  0  0  0  0  0  0  0  0
   -3.8140   -2.4480    1.1470 C   0  0  1  0  0  0  0  0  0  0  0  0
   -3.3510   -3.1770   -0.0960 C   0  0  0  0  0  0  0  0  0  0  0  0
   -4.0100   -3.5680    2.1950 C   0  0  0  0  0  0  0  0  0  0  0  0
   -3.8420    0.5040    0.5660 C   0  0  0  0  0  0  0  0  0  0  0  0
    3.3760    0.8300    0.6530 C   0  0  0  0  0  0  0  0  0  0  0  0
    4.5940    0.2460    0.0750 C   0  0  0  0  0  0  0  0  0  0  0  0
    5.8640    0.5020    0.4870 C   0  0  0  0  0  0  0  0  0  0  0  0
    6.7410   -0.2540   -0.3240 C   0  0  0  0  0  0  0  0  0  0  0  0
    5.9440   -0.9720   -1.2360 C   0  0  0  0  0  0  0  0  0  0  0  0
    6.5510   -1.8180   -2.1600 C   0  0  0  0  0  0  0  0  0  0  0  0
    7.9230   -1.9390   -2.1890 C   0  0  0  0  0  0  0  0  0  0  0  0
    8.1400   -0.3930   -0.3630 C   0  0  0  0  0  0  0  0  0  0  0  0
   -0.2130    0.1600    0.4790 C   0  0  0  0  0  0  0  0  0  0  0  0
   -2.5960   -0.3420    0.5780 C   0  0  2  0  0  0  0  0  0  0  0  0
   -2.7460   -1.4570    1.6150 C   0  0  0  0  0  0  0  0  0  0  0  0
   -3.0570   -4.6630    1.6680 C   0  0  0  0  0  0  0  0  0  0  0  0
   -4.9390    0.2170   -0.4270 C   0  0  0  0  0  0  0  0  0  0  0  0
    0.6830    2.4380    0.0860 C   0  0  0  0  0  0  0  0  0  0  0  0
    1.8080    3.4090    0.4480 C   0  0  0  0  0  0  0  0  0  0  0  0
    1.6030    4.7290   -0.2990 C   0  0  0  0  0  0  0  0  0  0  0  0
    1.7920    3.6690    1.9560 C   0  0  0  0  0  0  0  0  0  0  0  0
    4.6330   -0.6520   -0.9760 N   0  0  0  0  0  0  0  0  0  0  0  0
    2.1680    0.4970    0.1570 N   0  0  0  0  0  0  0  0  0  0  0  0
   -1.4420    0.4930    0.9230 N   0  0  0  0  0  0  0  0  0  0  0  0
   -2.9370   -4.4150    0.2220 N   0  0  0  0  0  0  0  0  0  0  0  0
    3.4580    1.6130    1.5810 O   0  0  0  0  0  0  0  0  0  0  0  0
    8.9190    0.2930    0.5110 O   0  0  0  0  0  0  0  0  0  0  0  0
   -3.3540   -2.7110   -1.2160 O   0  0  0  0  0  0  0  0  0  0  0  0
   -6.0210    1.1270   -0.2190 O   0  0  0  0  0  0  0  0  0  0  0  0
   -7.0100    1.4930   -2.6270 O   0  0  0  0  0  0  0  0  0  0  0  0
   -7.9640   -0.2440   -1.0640 O   0  0  0  0  0  0  0  0  0  0  0  0
   -8.4130    2.1770   -0.5110 O   0  0  0  0  0  0  0  0  0  0  0  0
   -3.9630    1.4130    1.3530 O   0  0  0  0  0  0  0  0  0  0  0  0
   -0.0470   -0.8790   -0.1240 O   0  0  0  0  0  0  0  0  0  0  0  0
   -7.3650    1.1090   -1.1040 P   0  0  0  0  0  0  0  0  0  0  0  0
    9.7900   -1.3400   -1.3300 H   0  0  0  0  0  0  0  0  0  0  0  0
   10.5680   -0.9510    0.5710 H   0  0  0  0  0  0  0  0  0  0  0  0
   10.6700    0.4020   -0.5810 H   0  0  0  0  0  0  0  0  0  0  0  0
   10.8350    0.7060    1.1650 H   0  0  0  0  0  0  0  0  0  0  0  0
    1.0870    1.2080    1.8070 H   0  0  0  0  0  0  0  0  0  0  0  0
   -4.7550   -1.9330    0.9580 H   0  0  0  0  0  0  0  0  0  0  0  0
   -3.7070   -3.2310    3.1870 H   0  0  0  0  0  0  0  0  0  0  0  0
   -5.0420   -3.9180    2.2030 H   0  0  0  0  0  0  0  0  0  0  0  0
    6.1510    1.1650    1.2900 H   0  0  0  0  0  0  0  0  0  0  0  0
    5.9460   -2.3750   -2.8600 H   0  0  0  0  0  0  0  0  0  0  0  0
    8.3860   -2.5910   -2.9150 H   0  0  0  0  0  0  0  0  0  0  0  0
   -2.4450   -0.7810   -0.4080 H   0  0  0  0  0  0  0  0  0  0  0  0
   -3.0450   -1.0260    2.5710 H   0  0  0  0  0  0  0  0  0  0  0  0
   -1.7950   -1.9760    1.7310 H   0  0  0  0  0  0  0  0  0  0  0  0
   -2.0820   -4.5780    2.1480 H   0  0  0  0  0  0  0  0  0  0  0  0
   -4.5530    0.3370   -1.4390 H   0  0  0  0  0  0  0  0  0  0  0  0
   -5.2930   -0.8050   -0.2920 H   0  0  0  0  0  0  0  0  0  0  0  0
    0.6370    2.3230   -0.9970 H   0  0  0  0  0  0  0  0  0  0  0  0
   -0.2670    2.8310    0.4490 H   0  0  0  0  0  0  0  0  0  0  0  0
    2.7670    2.9760    0.1640 H   0  0  0  0  0  0  0  0  0  0  0  0
    0.6440    5.1620   -0.0140 H   0  0  0  0  0  0  0  0  0  0  0  0
    2.4050    5.4210   -0.0400 H   0  0  0  0  0  0  0  0  0  0  0  0
    1.6150    4.5440   -1.3730 H   0  0  0  0  0  0  0  0  0  0  0  0
    1.9380    2.7290    2.4880 H   0  0  0  0  0  0  0  0  0  0  0  0
    2.5940    4.3610    2.2140 H   0  0  0  0  0  0  0  0  0  0  0  0
    0.8330    4.1020    2.2400 H   0  0  0  0  0  0  0  0  0  0  0  0
    3.8610   -0.9990   -1.4510 H   0  0  0  0  0  0  0  0  0  0  0  0
    2.1030   -0.1280   -0.5820 H   0  0  0  0  0  0  0  0  0  0  0  0
   -1.5620    1.2840    1.4700 H   0  0  0  0  0  0  0  0  0  0  0  0
   -6.6130    2.3690   -2.7290 H   0  0  0  0  0  0  0  0  0  0  0  0
   -9.2480    2.2200   -0.9970 H   0  0  0  0  0  0  0  0  0  0  0  0
   -2.6030   -5.0630   -0.4190 H   0  0  0  0  0  0  0  0  0  0  0  0
   -3.4810   -5.6510    1.8500 H   0  0  0  0  0  0  0  0  0  0  0  0
 19 28  1  0  0  0  0
  5 28  1  0  0  0  0
  6 19  1  0  0  0  0
  5 31  2  0  0  0  0
  4  5  1  0  0  0  0
  4  6  1  0  0  0  0
  4 18  1  0  0  0  0
 13 14  2  0  0  0  0
 12 13  1  0  0  0  0
  1 14  1  0  0  0  0
 17 18  1  0  0  0  0
 12 25  1  0  0  0  0
 11 12  2  0  0  0  0
  1 15  2  0  0  0  0
  9 25  1  0  0  0  0
 34 38  2  0  0  0  0
  7 17  1  0  0  0  0
 17 27  1  0  0  0  0
 35 38  1  0  0  0  0
 11 15  1  0  0  0  0
 10 11  1  0  0  0  0
 15 30  1  0  0  0  0
  7 36  2  0  0  0  0
  8 29  2  0  0  0  0
  8  9  1  0  0  0  0
  9 10  2  0  0  0  0
  7 20  1  0  0  0  0
  8 26  1  0  0  0  0
 32 38  1  0  0  0  0
 33 38  1  0  0  0  0
 16 37  2  0  0  0  0
 16 27  1  0  0  0  0
  2 30  1  0  0  0  0
  3 16  1  0  0  0  0
 20 32  1  0  0  0  0
  3 26  1  0  0  0  0
  3 21  1  0  0  0  0
 21 22  1  0  0  0  0
 22 24  1  0  0  0  0
 22 23  1  0  0  0  0
  1 39  1  0  0  0  0
  2 40  1  0  0  0  0
  2 41  1  0  0  0  0
  2 42  1  0  0  0  0
  3 43  1  0  0  0  0
  4 44  1  0  0  0  0
  6 45  1  0  0  0  0
  6 46  1  0  0  0  0
 10 47  1  0  0  0  0
 13 48  1  0  0  0  0
 14 49  1  0  0  0  0
 17 50  1  0  0  0  0
 18 51  1  0  0  0  0
 18 52  1  0  0  0  0
 19 53  1  0  0  0  0
 20 54  1  0  0  0  0
 20 55  1  0  0  0  0
 21 56  1  0  0  0  0
 21 57  1  0  0  0  0
 22 58  1  0  0  0  0
 23 59  1  0  0  0  0
 23 60  1  0  0  0  0
 23 61  1  0  0  0  0
 24 62  1  0  0  0  0
 24 63  1  0  0  0  0
 24 64  1  0  0  0  0
 25 65  1  0  0  0  0
 26 66  1  0  0  0  0
 27 67  1  0  0  0  0
 33 68  1  0  0  0  0
 35 69  1  0  0  0  0
 28 70  1  0  0  0  0
 19 71  1  0  0  0  0
M  END
> <OPENEYE_ISO_SMILES>
CC(C)C[C@@H](C(=O)N[C@@H](C[C@@H]1CCNC1=O)C(=O)COP(=O)(O)O)NC(=O)c2cc3c([nH]2)cccc3OC

> <OPENEYE_INCHI>
InChI=1S/C24H33N4O9P/c1-13(2)9-18(28-24(32)19-11-15-16(26-19)5-4-6-21(15)36-3)23(31)27-17(10-14-7-8-25-22(14)30)20(29)12-37-38(33,34)35/h4-6,11,13-14,17-18,26H,7-10,12H2,1-3H3,(H,25,30)(H,27,31)(H,28,32)(H2,33,34,35)/t14-,17-,18-/m0/s1

> <OPENEYE_INCHIKEY>
FQKALOFOWPDTED-WBAXXEDZSA-N

> <FORMULA>
C24H33N4O9P

$$$$
