@<TRIPOS>MOLECULE
/home/pku/3cl/gett_pdb/5RUU/5RUU_mol2/ligand/5RUU_W6G.pdb
 22 23 0 0 0
SMALL
GASTEIGER

@<TRIPOS>ATOM
      1  C10      -48.2930  -31.4490    3.3200 C.ar  201  W6G201      0.1086
      2  C13      -49.2460  -33.9620    3.8960 C.ar  201  W6G201     -0.0616
      3  C15      -49.5030  -31.5750    3.9420 C.ar  201  W6G201     -0.0351
      4  C05      -46.7070  -29.3770    5.3370 C.ar  201  W6G201      0.2004
      5  C08      -47.8710  -29.0270    7.5070 C.ar  201  W6G201      0.0902
      6  C11      -47.5610  -32.5520    2.9930 C.ar  201  W6G201     -0.0351
      7  C12      -48.0170  -33.8180    3.2900 C.ar  201  W6G201     -0.0599
      8  C14      -49.9940  -32.8470    4.2080 C.ar  201  W6G201     -0.0599
      9  N04      -46.3310  -29.4960    4.0020 N.pl3 201  W6G201     -0.1924
     10  N06      -45.9560  -29.5390    6.4000 N.ar  201  W6G201     -0.1248
     11  N07      -46.5930  -29.3480    7.5670 N.ar  201  W6G201     -0.1481
     12  O01      -48.5840  -28.8510    3.0240 O.2   201  W6G201     -0.1499
     13  O03      -46.9720  -29.8430    1.6430 O.2   201  W6G201     -0.1499
     14  S02      -47.5990  -29.8230    2.9290 S.O2  201  W6G201      0.0739
     15  S09      -48.2820  -28.9370    5.8240 S.2   201  W6G201     -0.0376
     16 H131      -49.5740  -34.8100    4.0850 H     201  W6G201      0.0618
     17 H151      -50.0060  -30.8250    4.1580 H     201  W6G201      0.0637
     18 H081      -48.4340  -28.8560    8.2260 H     201  W6G201      0.0927
     19 H111      -46.7310  -32.4470    2.5900 H     201  W6G201      0.0637
     20 H121      -47.5170  -34.5650    3.0560 H     201  W6G201      0.0618
     21 H141      -50.8140  -32.9460    4.6320 H     201  W6G201      0.0618
     22 H041      -45.5080  -29.4090    3.7390 H     201  W6G201      0.1758
@<TRIPOS>BOND
     1    13    14    2
     2    19     6    1
     3    14    12    2
     4    14     1    1
     5    14     9    1
     6     6     7   ar
     7     6     1   ar
     8    20     7    1
     9     7     2   ar
    10     1     3   ar
    11    22     9    1
    12     2    16    1
    13     2     8   ar
    14     3    17    1
    15     3     8   ar
    16     9     4    1
    17     8    21    1
    18     4    15   ar
    19     4    10   ar
    20    15     5   ar
    21    10    11   ar
    22     5    11   ar
    23     5    18    1
