@<TRIPOS>MOLECULE
/home/pku/3cl/gett_pdb/5SRD/5SRD_mol2/ligand/5SRD_R8K.pdb
 49 53 0 0 0
SMALL
GASTEIGER

@<TRIPOS>ATOM
      1  C16      -49.3750  -28.6570    3.8930 C.ar  201  R8K201     -0.0491
      2  C15      -50.7310  -28.7240    4.1590 C.ar  201  R8K201     -0.0257
      3  C14      -51.1710  -28.9860    5.4620 C.ar  201  R8K201      0.1254
      4  C13      -50.2830  -29.1810    6.5120 C.ar  201  R8K201     -0.0025
      5  C12      -48.9340  -29.1040    6.2110 C.ar  201  R8K201      0.0515
      6  C11      -48.4160  -28.8490    4.8990 C.ar  201  R8K201      0.0124
      7  C10      -46.9280  -28.8790    5.0060 C.ar  201  R8K201      0.0663
      8  C19      -46.6860  -29.1360    6.3910 C.ar  201  R8K201      0.1442
      9  C01      -47.1490  -33.1470    0.7000 C.3   201  R8K201      0.0736
     10  C05      -46.2280  -30.0090    0.0340 C.2   201  R8K201      0.2710
     11  C06      -46.3870  -28.5730    0.4640 C.3   201  R8K201      0.2103
     12  C07      -46.8820  -28.4790    1.9610 C.3   201  R8K201      0.0568
     13  C09      -45.7080  -28.7070    4.2200 C.ar  201  R8K201      0.1345
     14  C21      -44.4610  -29.0810    6.1600 C.ar  201  R8K201      0.1204
     15  C23      -44.5450  -28.3720    1.9960 C.3   201  R8K201      0.0227
     16  C24      -44.9990  -27.9360    0.6030 C.3   201  R8K201      0.0305
     17  C25      -43.7830  -28.0770   -0.3460 C.3   201  R8K201     -0.0425
     18  C26      -43.6480  -26.5450   -0.3450 C.3   201  R8K201     -0.0517
     19  C27      -45.0310  -26.4350    0.3100 C.3   201  R8K201     -0.0425
     20  F17      -52.4900  -29.0370    5.6860 F     201  R8K201     -0.2054
     21  F28      -47.2270  -27.9490   -0.3670 F     201  R8K201     -0.2296
     22  N04      -45.7600  -30.9470    0.9570 N.am  201  R8K201     -0.1875
     23  N08      -45.7730  -28.4390    2.8470 N.pl3 201  R8K201     -0.3104
     24  N18      -47.8570  -29.2750    7.0900 N.ar  201  R8K201     -0.3389
     25  N20      -45.4910  -29.2550    6.9870 N.ar  201  R8K201     -0.2178
     26  N22      -44.5060  -28.8260    4.8340 N.ar  201  R8K201     -0.2200
     27  O03      -44.8040  -33.0840    1.6800 O.2   201  R8K201     -0.1554
     28  O29      -46.5200  -30.3440   -1.0850 O.2   201  R8K201     -0.2707
     29  O30      -45.1330  -32.6530   -0.6860 O.2   201  R8K201     -0.1554
     30  S02      -45.5850  -32.5180    0.6500 S.O2  201  R8K201      0.0424
     31 H161      -49.0680  -28.4730    2.8810 H     201  R8K201      0.0625
     32 H151      -51.4710  -28.5830    3.3820 H     201  R8K201      0.0646
     33 H131      -50.6730  -29.3780    7.5060 H     201  R8K201      0.0667
     34 H013      -47.6340  -33.5650   -0.1850 H     201  R8K201      0.0482
     35 H012      -47.9620  -32.4670    1.0460 H     201  R8K201      0.0482
     36 H011      -47.3380  -33.9640    1.4190 H     201  R8K201      0.0482
     37 H071      -47.3920  -29.4400    2.1730 H     201  R8K201      0.0501
     38 H072      -47.5540  -27.6490    2.0530 H     201  R8K201      0.0501
     39 H211      -43.4560  -29.1670    6.6370 H     201  R8K201      0.1048
     40 H232      -43.9630  -27.5160    2.4530 H     201  R8K201      0.0471
     41 H231      -43.8110  -29.2210    2.0050 H     201  R8K201      0.0471
     42 H251      -42.9000  -28.6550   -0.0550 H     201  R8K201      0.0272
     43 H252      -44.0690  -28.5180   -1.3310 H     201  R8K201      0.0272
     44 H261      -43.5530  -26.0990   -1.3380 H     201  R8K201      0.0266
     45 H262      -42.8520  -26.1430    0.2810 H     201  R8K201      0.0266
     46 H272      -45.8980  -26.1120   -0.2730 H     201  R8K201      0.0272
     47 H271      -45.0290  -25.7720    1.1880 H     201  R8K201      0.0272
     48 H041      -45.5790  -30.5620    1.8620 H     201  R8K201      0.1762
     49 H181      -47.9340  -29.4720    8.0750 H     201  R8K201      0.1673
@<TRIPOS>BOND
     1    44    18    1
     2    43    17    1
     3    28    10    2
     4    29    30    2
     5    21    11    1
     6    17    18    1
     7    17    42    1
     8    17    16    1
     9    18    45    1
    10    18    19    1
    11    46    19    1
    12    34     9    1
    13    10    11    1
    14    10    22   am
    15    19    16    1
    16    19    47    1
    17    11    16    1
    18    11    12    1
    19    16    15    1
    20    30     9    1
    21    30    22    1
    22    30    27    2
    23     9    35    1
    24     9    36    1
    25    22    48    1
    26    12    38    1
    27    12    37    1
    28    12    23    1
    29    15    41    1
    30    15    40    1
    31    15    23    1
    32    23    13    1
    33    31     1    1
    34    32     2    1
    35     1     2   ar
    36     1     6   ar
    37     2     3   ar
    38    13    26   ar
    39    13     7   ar
    40    26    14   ar
    41     6     7   ar
    42     6     5   ar
    43     7     8   ar
    44     3    20    1
    45     3     4   ar
    46    14    39    1
    47    14    25   ar
    48     5     4   ar
    49     5    24   ar
    50     8    25   ar
    51     8    24   ar
    52     4    33    1
    53    24    49    1
