@<TRIPOS>MOLECULE
/home/pku/3cl/gett_pdb/5RUL/5RUL_mol2/ligand/5RUL_5ZE.pdb
 18 18 0 0 0
SMALL
GASTEIGER

@<TRIPOS>ATOM
      1  C1       -47.1650  -28.7950    5.9070 C.3   201  5ZE201     -0.0222
      2  C2       -48.5990  -28.9220    5.3920 C.ar  201  5ZE201      0.0435
      3  C3       -49.6720  -29.2240    6.2270 C.ar  201  5ZE201     -0.0194
      4  C4       -50.9330  -29.3220    5.6550 C.ar  201  5ZE201      0.0435
      5  C5       -52.1730  -29.6640    6.4700 C.3   201  5ZE201     -0.0222
      6  N6       -51.0760  -29.0970    4.3700 N.ar  201  5ZE201     -0.2199
      7  C7       -50.0480  -28.8030    3.6220 C.ar  201  5ZE201      0.2130
      8  N8       -50.2180  -28.5670    2.2020 N.pl3 201  5ZE201     -0.3275
      9  N9       -48.8480  -28.7140    4.1320 N.ar  201  5ZE201     -0.2199
     10  H1       -46.8720  -29.6480    6.2630 H     201  5ZE201      0.0293
     11  H2       -46.5820  -28.5300    5.1790 H     201  5ZE201      0.0293
     12  H3       -47.1340  -28.1250    6.6060 H     201  5ZE201      0.0293
     13  H4       -49.5430  -29.3840    7.1340 H     201  5ZE201      0.0653
     14  H5       -52.7680  -30.2140    5.9380 H     201  5ZE201      0.0293
     15  H6       -52.6290  -28.8460    6.7240 H     201  5ZE201      0.0293
     16  H7       -51.9120  -30.1500    7.2680 H     201  5ZE201      0.0293
     17  H8       -49.5630  -28.2290    1.7530 H     201  5ZE201      0.1452
     18  H9       -51.0050  -28.6210    1.8470 H     201  5ZE201      0.1452
@<TRIPOS>BOND
     1    17     8    1
     2    18     8    1
     3     8     7    1
     4     7     9   ar
     5     7     6   ar
     6     9     2   ar
     7     6     4   ar
     8    11     1    1
     9     2     1    1
    10     2     3   ar
    11     4     3   ar
    12     4     5    1
    13     1    10    1
    14     1    12    1
    15    14     5    1
    16     3    13    1
    17     5    15    1
    18     5    16    1
