UO9
  -OEChem-02242320043D

 75 76  0     1  0  0  0  0  0999 V2000
   -2.9930    3.2500    2.7750 C   0  0  0  0  0  0  0  0  0  0  0  0
   -5.3540    1.5470   -0.7520 C   0  0  2  0  0  0  0  0  0  0  0  0
    1.3280    0.2470    0.8280 C   0  0  0  0  0  0  0  0  0  0  0  0
   -1.0970    0.4730    0.9060 C   0  0  1  0  0  0  0  0  0  0  0  0
   -1.3780    1.8720    1.4580 C   0  0  0  0  0  0  0  0  0  0  0  0
   -2.6170    1.8280    2.3550 C   0  0  0  0  0  0  0  0  0  0  0  0
   -2.3150    0.9910    3.6000 C   0  0  0  0  0  0  0  0  0  0  0  0
   -2.2100    0.0670   -0.0250 C   0  0  0  0  0  0  0  0  0  0  0  0
   -4.4660   -0.7640   -0.4210 C   0  0  2  0  0  0  0  0  0  0  0  0
   -3.9770   -2.0280   -1.1330 C   0  0  2  0  0  0  0  0  0  0  0  0
   -6.7120    1.2260   -0.0850 C   0  0  0  0  0  0  0  0  0  0  0  0
   -7.4890    2.5430   -0.3010 C   0  0  0  0  0  0  0  0  0  0  0  0
   -5.6820    2.6290   -1.7570 C   0  0  0  0  0  0  0  0  0  0  0  0
   -4.7980    0.3100   -1.4590 C   0  0  0  0  0  0  0  0  0  0  0  0
    3.7060    0.0860    0.9440 C   0  0  0  0  0  0  0  0  0  0  0  0
    4.9320    0.2570    0.0440 C   0  0  0  0  0  0  0  0  0  0  0  0
    4.8440   -0.7220   -1.1280 C   0  0  0  0  0  0  0  0  0  0  0  0
    7.7200    0.1650   -0.1810 C   0  0  0  0  0  0  0  0  0  0  0  0
   -4.9890   -2.4910   -2.0290 O   0  0  0  0  0  0  0  0  0  0  0  0
    1.3100   -0.0630    2.0030 O   0  0  0  0  0  0  0  0  0  0  0  0
    8.1560   -0.8950   -0.9550 C   0  0  0  0  0  0  0  0  0  0  0  0
    9.7350    0.5450   -2.0360 C   0  0  0  0  0  0  0  0  0  0  0  0
    4.9760    1.6900   -0.4900 C   0  0  0  0  0  0  0  0  0  0  0  0
    9.1640   -0.7040   -1.8820 C   0  0  0  0  0  0  0  0  0  0  0  0
    9.2940    1.6060   -1.2670 C   0  0  0  0  0  0  0  0  0  0  0  0
    8.2860    1.4160   -0.3390 C   0  0  0  0  0  0  0  0  0  0  0  0
    0.1720    0.4820    0.1750 N   0  0  0  0  0  0  0  0  0  0  0  0
   -3.4160   -0.2710    0.4740 N   0  0  0  0  0  0  0  0  0  0  0  0
   -6.8840    3.1650   -1.4840 N   0  0  0  0  0  0  0  0  0  0  0  0
   -4.9640    2.9640   -2.6760 O   0  0  0  0  0  0  0  0  0  0  0  0
   -2.0210    0.0450   -1.2220 O   0  0  0  0  0  0  0  0  0  0  0  0
    2.5020    0.3540    0.1780 O   0  0  0  0  0  0  0  0  0  0  0  0
    6.5190   -1.4680    1.2820 O   0  0  0  0  0  0  0  0  0  0  0  0
    6.4360   -0.0780    1.0010 S   0  0  2  0  0  0  0  0  0  0  0  0
   -3.2080    3.8460    1.8880 H   0  0  0  0  0  0  0  0  0  0  0  0
   -3.8760    3.2180    3.4140 H   0  0  0  0  0  0  0  0  0  0  0  0
   -2.1640    3.6990    3.3220 H   0  0  0  0  0  0  0  0  0  0  0  0
   -4.6430    1.9140   -0.0120 H   0  0  0  0  0  0  0  0  0  0  0  0
   -1.0360   -0.2370    1.7310 H   0  0  0  0  0  0  0  0  0  0  0  0
   -0.5210    2.2130    2.0390 H   0  0  0  0  0  0  0  0  0  0  0  0
   -1.5530    2.5600    0.6310 H   0  0  0  0  0  0  0  0  0  0  0  0
   -3.4460    1.3790    1.8080 H   0  0  0  0  0  0  0  0  0  0  0  0
   -3.2180    0.8980    4.2030 H   0  0  0  0  0  0  0  0  0  0  0  0
   -1.9760    0.0000    3.2980 H   0  0  0  0  0  0  0  0  0  0  0  0
   -1.5360    1.4790    4.1850 H   0  0  0  0  0  0  0  0  0  0  0  0
   -5.3590   -0.9970    0.1600 H   0  0  0  0  0  0  0  0  0  0  0  0
   -3.0710   -1.8010   -1.6940 H   0  0  0  0  0  0  0  0  0  0  0  0
   -7.2060    0.3950   -0.5880 H   0  0  0  0  0  0  0  0  0  0  0  0
   -6.5850    1.0160    0.9770 H   0  0  0  0  0  0  0  0  0  0  0  0
   -8.5430    2.3350   -0.4810 H   0  0  0  0  0  0  0  0  0  0  0  0
   -7.3770    3.1940    0.5670 H   0  0  0  0  0  0  0  0  0  0  0  0
   -5.5430   -0.0760   -2.1550 H   0  0  0  0  0  0  0  0  0  0  0  0
   -3.8940    0.5780   -2.0060 H   0  0  0  0  0  0  0  0  0  0  0  0
    3.6750   -0.9350    1.3250 H   0  0  0  0  0  0  0  0  0  0  0  0
    3.7690    0.7840    1.7790 H   0  0  0  0  0  0  0  0  0  0  0  0
    3.9400   -0.5210   -1.7030 H   0  0  0  0  0  0  0  0  0  0  0  0
    5.7170   -0.6000   -1.7700 H   0  0  0  0  0  0  0  0  0  0  0  0
    4.8130   -1.7430   -0.7480 H   0  0  0  0  0  0  0  0  0  0  0  0
   -5.2300   -1.8520   -2.7140 H   0  0  0  0  0  0  0  0  0  0  0  0
    7.7110   -1.8710   -0.8340 H   0  0  0  0  0  0  0  0  0  0  0  0
   10.5220    0.6940   -2.7600 H   0  0  0  0  0  0  0  0  0  0  0  0
    5.0380    2.3880    0.3450 H   0  0  0  0  0  0  0  0  0  0  0  0
    5.8490    1.8120   -1.1320 H   0  0  0  0  0  0  0  0  0  0  0  0
    4.0720    1.8920   -1.0650 H   0  0  0  0  0  0  0  0  0  0  0  0
    9.5060   -1.5320   -2.4860 H   0  0  0  0  0  0  0  0  0  0  0  0
    9.7360    2.5830   -1.3900 H   0  0  0  0  0  0  0  0  0  0  0  0
    7.9420    2.2440    0.2620 H   0  0  0  0  0  0  0  0  0  0  0  0
    0.1810    0.6580   -0.7790 H   0  0  0  0  0  0  0  0  0  0  0  0
   -3.5890   -0.1870    1.4240 H   0  0  0  0  0  0  0  0  0  0  0  0
   -7.2980    3.8730   -2.0030 H   0  0  0  0  0  0  0  0  0  0  0  0
   -3.6220   -3.3150    0.0950 S   0  0  0  0  0  0  0  0  0  0  0  0
   -4.7280   -3.4860    0.9720 O   0  0  0  0  0  0  0  0  0  0  0  0
   -2.9950   -4.4310   -0.5200 O   0  0  0  0  0  0  0  0  0  0  0  0
   -2.5360   -2.7110    0.9750 O   0  0  0  0  0  0  0  0  0  0  0  0
   -2.2390   -3.2930    1.6880 H   0  0  0  0  0  0  0  0  0  0  0  0
 16 17  1  0  0  0  0
 13 30  2  0  0  0  0
 16 23  1  0  0  0  0
 15 16  1  0  0  0  0
 16 34  1  0  0  0  0
 13 29  1  0  0  0  0
  2 13  1  0  0  0  0
 12 29  1  0  0  0  0
  3 20  2  0  0  0  0
 15 32  1  0  0  0  0
 21 24  2  0  0  0  0
 22 24  1  0  0  0  0
 18 21  1  0  0  0  0
 22 25  2  0  0  0  0
  3 32  1  0  0  0  0
  3 27  1  0  0  0  0
 18 34  1  0  0  0  0
 18 26  2  0  0  0  0
  2 14  1  0  0  0  0
  2 11  1  0  0  0  0
 33 34  2  0  0  0  0
 11 12  1  0  0  0  0
 25 26  1  0  0  0  0
  9 14  1  0  0  0  0
  6  7  1  0  0  0  0
  4 27  1  0  0  0  0
  4  8  1  0  0  0  0
  4  5  1  0  0  0  0
  8 28  1  0  0  0  0
  9 28  1  0  0  0  0
  8 31  2  0  0  0  0
  9 10  1  0  0  0  0
  5  6  1  0  0  0  0
  1  6  1  0  0  0  0
 10 19  1  0  0  0  0
  1 35  1  0  0  0  0
  1 36  1  0  0  0  0
  1 37  1  0  0  0  0
  2 38  1  0  0  0  0
  4 39  1  0  0  0  0
  5 40  1  0  0  0  0
  5 41  1  0  0  0  0
  6 42  1  0  0  0  0
  7 43  1  0  0  0  0
  7 44  1  0  0  0  0
  7 45  1  0  0  0  0
  9 46  1  0  0  0  0
 10 47  1  0  0  0  0
 11 48  1  0  0  0  0
 11 49  1  0  0  0  0
 12 50  1  0  0  0  0
 12 51  1  0  0  0  0
 14 52  1  0  0  0  0
 14 53  1  0  0  0  0
 15 54  1  0  0  0  0
 15 55  1  0  0  0  0
 17 56  1  0  0  0  0
 17 57  1  0  0  0  0
 17 58  1  0  0  0  0
 19 59  1  0  0  0  0
 21 60  1  0  0  0  0
 22 61  1  0  0  0  0
 23 62  1  0  0  0  0
 23 63  1  0  0  0  0
 23 64  1  0  0  0  0
 24 65  1  0  0  0  0
 25 66  1  0  0  0  0
 26 67  1  0  0  0  0
 27 68  1  0  0  0  0
 28 69  1  0  0  0  0
 29 70  1  0  0  0  0
 10 71  1  0  0  0  0
 71 72  2  0  0  0  0
 71 73  2  0  0  0  0
 71 74  1  0  0  0  0
 74 75  1  0  0  0  0
M  END
> <OPENEYE_ISO_SMILES>
CC(C)C[C@@H](C(=O)N[C@@H](C[C@@H]1CCNC1=O)[C@H](O)S(=O)(=O)O)NC(=O)OCC(C)(C)[S@@](=O)c2ccccc2

> <OPENEYE_INCHI>
InChI=1S/C24H37N3O9S2/c1-15(2)12-18(27-23(31)36-14-24(3,4)37(32)17-8-6-5-7-9-17)21(29)26-19(22(30)38(33,34)35)13-16-10-11-25-20(16)28/h5-9,15-16,18-19,22,30H,10-14H2,1-4H3,(H,25,28)(H,26,29)(H,27,31)(H,33,34,35)/t16-,18-,19-,22+,37-/m0/s1

> <OPENEYE_INCHIKEY>
SNFBJKJTJOFDKW-NRANLDPGSA-N

> <FORMULA>
C24H37N3O9S2

$$$$
