@<TRIPOS>MOLECULE
/home/pku/3cl/gett_pdb/7RVM/7RVM_mol2/ligand/7RVM_7V2.pdb
 37 38 0 0 0
SMALL
GASTEIGER

@<TRIPOS>ATOM
      1  C1        -5.5350  -22.7190  -21.1360 C.ar  401  7V2401     -0.0000
      2  C11       -9.5770  -17.2760  -18.9090 C.3   401  7V2401      0.1760
      3  C12       -9.7930  -15.9600  -18.2410 C.2   401  7V2401      0.2617
      4  C13       -6.0780  -11.7970  -19.2640 C.3   401  7V2401      0.0001
      5  C14       -9.3740  -13.5920  -18.1650 C.3   401  7V2401      0.1728
      6  C15      -10.7740  -13.0140  -18.1960 C.2   401  7V2401      0.2612
      7  C17      -12.6590  -12.0600  -16.9630 C.3   401  7V2401      0.1287
      8  C19      -13.4820  -12.8460  -15.9390 C.3   401  7V2401      0.0335
      9  C2        -5.4990  -21.3290  -21.2190 C.ar  401  7V2401     -0.0002
     10  C20      -13.6570  -14.2750  -16.4270 C.3   401  7V2401      0.0818
     11  C21      -14.5180  -14.3820  -17.6850 C.3   401  7V2401      0.0326
     12  C22      -15.2750  -15.7010  -17.5140 C.3   401  7V2401      0.1156
     13  C24      -14.4110  -15.1170  -15.4410 C.2   401  7V2401      0.2410
     14  C3        -5.7900  -20.5630  -20.0930 C.ar  401  7V2401     -0.0007
     15  C30      -10.9010  -18.0100  -19.1500 C.3   401  7V2401      0.0291
     16  C31      -10.7360  -19.0640  -20.2470 C.3   401  7V2401      0.0023
     17  C32      -12.0250  -17.0460  -19.5300 C.3   401  7V2401      0.0023
     18  C34       -8.3840  -12.6110  -18.8210 C.3   401  7V2401      0.0311
     19  C35       -6.9080  -12.7610  -18.4080 C.3   401  7V2401      0.0021
     20  C36       -6.7100  -12.4170  -16.9350 C.3   401  7V2401      0.0001
     21  C37       -6.3670  -14.1700  -18.6460 C.3   401  7V2401      0.0001
     22  C4        -6.1210  -21.1700  -18.8760 C.ar  401  7V2401      0.0213
     23  C5        -6.1520  -22.5610  -18.8030 C.ar  401  7V2401     -0.0007
     24  C6        -5.8620  -23.3310  -19.9290 C.ar  401  7V2401     -0.0002
     25  C7        -6.4510  -20.3670  -17.6310 C.3   401  7V2401      0.2368
     26  C8       -12.6350  -10.5820  -16.5840 C.3   401  7V2401      0.2036
     27  C9        -7.3950  -18.2350  -18.6220 C.2   401  7V2401      0.4218
     28  N10       -8.6240  -18.0500  -18.1250 N.am  401  7V2401     -0.1611
     29  N13       -9.3500  -14.8680  -18.8660 N.am  401  7V2401     -0.1963
     30  N16      -11.2970  -12.5750  -17.0450 N.am  401  7V2401     -0.2030
     31  N23      -15.2300  -15.9480  -16.0800 N.am  401  7V2401     -0.2054
     32  O26      -14.2540  -15.0190  -14.2390 O.2   401  7V2401     -0.2734
     33  O29       -7.0700  -17.8270  -19.7350 O.2   401  7V2401     -0.2245
     34  O33      -10.3350  -15.9200  -17.1620 O.2   401  7V2401     -0.2715
     35  O38      -11.3830  -12.9560  -19.2600 O.2   401  7V2401     -0.2715
     36  O8        -6.4000  -18.9470  -17.8240 O.3   401  7V2401     -0.4285
     37  O9       -13.9080  -10.0180  -16.9380 O.3   401  7V2401     -0.2185
@<TRIPOS>BOND
     1     9     1   ar
     2     9    14   ar
     3     1    24   ar
     4    16    15    1
     5    14    22   ar
     6    24    23   ar
     7    33    27    2
     8    17    15    1
     9     4    19    1
    10    35     6    2
    11    15     2    1
    12     2     3    1
    13     2    28    1
    14    22    23   ar
    15    22    25    1
    16    29     3   am
    17    29     5    1
    18    18    19    1
    19    18     5    1
    20    21    19    1
    21    27    28   am
    22    27    36    1
    23    19    20    1
    24     3    34    2
    25     6     5    1
    26     6    30   am
    27    36    25    1
    28    11    12    1
    29    11    10    1
    30    12    31    1
    31    30     7    1
    32     7    26    1
    33     7     8    1
    34    37    26    1
    35    10     8    1
    36    10    13    1
    37    31    13   am
    38    13    32    2
