MTA
  -OEChem-02242320033D

 35 37  0     1  0  0  0  0  0999 V2000
    2.2740   -0.2980    5.5430 C   0  0  0  0  0  0  0  0  0  0  0  0
    1.5440    0.7150    4.2270 S   0  0  0  0  0  0  0  0  0  0  0  0
    0.1610   -0.3510    3.7380 C   0  0  0  0  0  0  0  0  0  0  0  0
   -0.6220    0.3160    2.6070 C   0  0  1  0  0  0  0  0  0  0  0  0
    0.2260    0.4920    1.4600 O   0  0  0  0  0  0  0  0  0  0  0  0
   -1.5360   -0.8490    0.6710 C   0  0  2  0  0  0  0  0  0  0  0  0
   -2.7550   -0.7960   -0.0710 O   0  0  0  0  0  0  0  0  0  0  0  0
   -1.7950   -0.5850    2.1780 C   0  0  2  0  0  0  0  0  0  0  0  0
   -3.0440    0.0850    2.3610 O   0  0  0  0  0  0  0  0  0  0  0  0
   -0.6040    0.3280    0.2910 C   0  0  2  0  0  0  0  0  0  0  0  0
    0.2100   -0.0100   -0.8770 N   0  0  0  0  0  0  0  0  0  0  0  0
    1.4000   -0.6750   -0.8660 C   0  0  0  0  0  0  0  0  0  0  0  0
    1.8480   -0.8060   -2.0800 N   0  0  0  0  0  0  0  0  0  0  0  0
    0.9770   -0.2340   -2.9460 C   0  0  0  0  0  0  0  0  0  0  0  0
    0.9340   -0.0720   -4.3410 C   0  0  0  0  0  0  0  0  0  0  0  0
    1.9500   -0.5610   -5.1430 N   0  0  0  0  0  0  0  0  0  0  0  0
   -0.1060    0.5600   -4.8730 N   0  0  0  0  0  0  0  0  0  0  0  0
   -1.0810    1.0300   -4.1160 C   0  0  0  0  0  0  0  0  0  0  0  0
   -1.0820    0.9010   -2.8060 N   0  0  0  0  0  0  0  0  0  0  0  0
   -0.0860    0.2780   -2.1850 C   0  0  0  0  0  0  0  0  0  0  0  0
    2.5800   -1.2600    5.1320 H   0  0  0  0  0  0  0  0  0  0  0  0
    3.1430    0.2130    5.9560 H   0  0  0  0  0  0  0  0  0  0  0  0
    1.5370   -0.4570    6.3300 H   0  0  0  0  0  0  0  0  0  0  0  0
    0.5470   -1.3110    3.3950 H   0  0  0  0  0  0  0  0  0  0  0  0
   -0.4960   -0.5080    4.5920 H   0  0  0  0  0  0  0  0  0  0  0  0
   -1.0000    1.2830    2.9390 H   0  0  0  0  0  0  0  0  0  0  0  0
   -1.0340   -1.8050    0.5240 H   0  0  0  0  0  0  0  0  0  0  0  0
   -3.2880   -1.5520    0.2100 H   0  0  0  0  0  0  0  0  0  0  0  0
   -1.7810   -1.5210    2.7370 H   0  0  0  0  0  0  0  0  0  0  0  0
   -3.7300   -0.5040    2.0200 H   0  0  0  0  0  0  0  0  0  0  0  0
   -1.1850    1.2320    0.1040 H   0  0  0  0  0  0  0  0  0  0  0  0
    1.8970   -1.0400    0.0200 H   0  0  0  0  0  0  0  0  0  0  0  0
    1.9090   -0.4430   -6.1050 H   0  0  0  0  0  0  0  0  0  0  0  0
    2.7040   -1.0220   -4.7430 H   0  0  0  0  0  0  0  0  0  0  0  0
   -1.9070    1.5380   -4.5890 H   0  0  0  0  0  0  0  0  0  0  0  0
  1  2  1  0  0  0  0
  1 21  1  0  0  0  0
  1 22  1  0  0  0  0
  1 23  1  0  0  0  0
  2  3  1  0  0  0  0
  3  4  1  0  0  0  0
  3 24  1  0  0  0  0
  3 25  1  0  0  0  0
  4  5  1  0  0  0  0
  4  8  1  0  0  0  0
  4 26  1  0  0  0  0
  5 10  1  0  0  0  0
  6  7  1  0  0  0  0
  6  8  1  0  0  0  0
  6 10  1  0  0  0  0
  6 27  1  0  0  0  0
  7 28  1  0  0  0  0
  8  9  1  0  0  0  0
  8 29  1  0  0  0  0
  9 30  1  0  0  0  0
 10 11  1  0  0  0  0
 10 31  1  0  0  0  0
 11 12  1  0  0  0  0
 11 20  1  0  0  0  0
 12 13  2  0  0  0  0
 12 32  1  0  0  0  0
 13 14  1  0  0  0  0
 14 15  1  0  0  0  0
 14 20  2  0  0  0  0
 15 16  1  0  0  0  0
 15 17  2  0  0  0  0
 16 33  1  0  0  0  0
 16 34  1  0  0  0  0
 17 18  1  0  0  0  0
 18 19  2  0  0  0  0
 18 35  1  0  0  0  0
 19 20  1  0  0  0  0
M  END
> <OPENEYE_ISO_SMILES>
CSC[C@@H]1[C@H]([C@H]([C@@H](O1)n2cnc3c2ncnc3N)O)O

> <OPENEYE_INCHI>
InChI=1S/C11H15N5O3S/c1-20-2-5-7(17)8(18)11(19-5)16-4-15-6-9(12)13-3-14-10(6)16/h3-5,7-8,11,17-18H,2H2,1H3,(H2,12,13,14)/t5-,7-,8-,11-/m1/s1

> <OPENEYE_INCHIKEY>
WUUGFSXJNOTRMR-IOSLPCCCSA-N

> <FORMULA>
C11H15N5O3S

$$$$
