@<TRIPOS>MOLECULE
/home/pku/3cl/gett_pdb/5SQO/5SQO_mol2/ligand/5SQO_QTF.pdb
 41 45 0 0 0
SMALL
GASTEIGER

@<TRIPOS>ATOM
      1  C18      -44.3510  -29.2000    6.2350 C.ar  201  QTF201      0.1204
      2  C16      -46.6320  -29.1830    6.3350 C.ar  201  QTF201      0.1442
      3  C13      -49.1200  -28.8480    3.6140 C.ar  201  QTF201     -0.0491
      4  C12      -50.5020  -28.8520    3.7570 C.ar  201  QTF201     -0.0257
      5  C11      -51.0670  -28.9970    5.0390 C.ar  201  QTF201      0.1254
      6  C10      -50.2710  -29.1340    6.1800 C.ar  201  QTF201     -0.0025
      7  C20      -44.0900  -28.3140    2.0690 C.3   201  QTF201      0.0226
      8  C02      -46.6050  -27.3760   -0.6580 C.2   201  QTF201      0.1272
      9  C03      -45.8050  -28.3310    0.3530 C.3   201  QTF201      0.1816
     10  C04      -46.4820  -28.5480    1.7600 C.3   201  QTF201      0.0542
     11  C06      -45.5440  -28.9410    4.1960 C.ar  201  QTF201      0.1345
     12  C07      -46.7920  -29.0250    4.9100 C.ar  201  QTF201      0.0663
     13  C08      -48.2510  -28.9780    4.7080 C.ar  201  QTF201      0.0124
     14  C09      -48.8820  -29.1140    5.9880 C.ar  201  QTF201      0.0515
     15  C21      -44.4940  -27.6250    0.7420 C.3   201  QTF201      0.0279
     16  C22      -44.4580  -26.0850    0.8460 C.3   201  QTF201     -0.0426
     17  C23      -43.1950  -26.0710   -0.0280 C.3   201  QTF201     -0.0517
     18  C24      -43.4490  -27.5370   -0.4140 C.3   201  QTF201     -0.0426
     19  F14      -52.3780  -28.9970    5.1660 F     201  QTF201     -0.2054
     20  F25      -45.5400  -29.4750   -0.2250 F     201  QTF201     -0.2325
     21  N05      -45.3640  -28.8130    2.7290 N.pl3 201  QTF201     -0.3105
     22  N15      -47.8870  -29.2460    6.9770 N.ar  201  QTF201     -0.3389
     23  N17      -45.4490  -29.2810    7.0270 N.ar  201  QTF201     -0.2178
     24  N19      -44.3570  -29.0470    4.8730 N.ar  201  QTF201     -0.2200
     25  O01      -46.2430  -27.4600   -1.8450 O.co2 201  QTF201     -0.8454
     26  O26      -47.4870  -26.6400   -0.1760 O.co2 201  QTF201     -0.3056
     27 H181      -43.3480  -29.2550    6.7220 H     201  QTF201      0.1048
     28 H131      -48.7220  -28.7340    2.6070 H     201  QTF201      0.0625
     29 H121      -51.1900  -28.7510    2.9050 H     201  QTF201      0.0646
     30 H101      -50.7950  -29.2450    7.1360 H     201  QTF201      0.0667
     31 H201      -43.4600  -29.2060    1.8590 H     201  QTF201      0.0471
     32 H202      -43.5000  -27.6230    2.6980 H     201  QTF201      0.0471
     33 H041      -47.0420  -27.6480    2.0770 H     201  QTF201      0.0500
     34 H042      -47.1580  -29.4160    1.7550 H     201  QTF201      0.0500
     35 H221      -44.3280  -25.7400    1.8800 H     201  QTF201      0.0272
     36 H222      -45.3020  -25.5050    0.4460 H     201  QTF201      0.0272
     37 H232      -42.2570  -25.8870    0.5120 H     201  QTF201      0.0266
     38 H231      -43.2080  -25.3450   -0.8550 H     201  QTF201      0.0266
     39 H242      -42.5950  -28.2220   -0.3180 H     201  QTF201      0.0272
     40 H241      -43.8340  -27.6500   -1.4420 H     201  QTF201      0.0272
     41 H151      -48.0570  -29.3620    7.9620 H     201  QTF201      0.1673
@<TRIPOS>UNITY_ATOM_ATTR
25 1
charge -1
@<TRIPOS>BOND
     1    25     8   ar
     2    40    18    1
     3    38    17    1
     4     8    26   ar
     5     8     9    1
     6    18    39    1
     7    18    17    1
     8    18    15    1
     9    20     9    1
    10    17    37    1
    11    17    16    1
    12     9    15    1
    13     9    10    1
    14    36    16    1
    15    15    16    1
    16    15     7    1
    17    16    35    1
    18    34    10    1
    19    10    33    1
    20    10    21    1
    21    31     7    1
    22     7    32    1
    23     7    21    1
    24    28     3    1
    25    21    11    1
    26    29     4    1
    27     3     4   ar
    28     3    13   ar
    29     4     5   ar
    30    11    24   ar
    31    11    12   ar
    32    13    12   ar
    33    13    14   ar
    34    24     1   ar
    35    12     2   ar
    36     5    19    1
    37     5     6   ar
    38    14     6   ar
    39    14    22   ar
    40     6    30    1
    41     1    27    1
    42     1    23   ar
    43     2    22   ar
    44     2    23   ar
    45    22    41    1
