@<TRIPOS>MOLECULE
/home/pku/3cl/gett_pdb/7LAB/7LAB_mol2/ligand/7LAB_NAG.pdb
 27 27 0 0 0
SMALL
GASTEIGER

@<TRIPOS>ATOM
      1  C1       175.9550  195.8090  237.7060 C.3     1  NAG1        0.1078
      2  C2       176.2640  197.2190  237.1710 C.3     1  NAG1        0.0802
      3  C3       177.7200  197.5780  237.5010 C.3     1  NAG1        0.1076
      4  C4       178.0790  197.3890  238.9920 C.3     1  NAG1        0.1493
      5  C5       177.6410  195.9980  239.4920 C.3     1  NAG1        0.1137
      6  C6       177.7670  195.8160  241.0080 C.3     1  NAG1        0.0730
      7  C7       175.1230  197.9610  235.1090 C.2     1  NAG1        0.2103
      8  C8       174.9020  197.6770  233.6160 C.3     1  NAG1        0.0122
      9  N2       176.0660  197.2500  235.7180 N.am    1  NAG1       -0.3075
     10  O3       177.9540  198.9450  237.0900 O.3     1  NAG1       -0.3871
     11  O4       179.5590  197.4570  239.1410 O.3     1  NAG1       -0.2256
     12  O5       176.2290  195.7580  239.1320 O.3     1  NAG1       -0.3638
     13  O6       177.0800  194.6160  241.4060 O.3     1  NAG1       -0.3924
     14  O7       174.4570  198.7910  235.7110 O.2     1  NAG1       -0.2761
     15  H1       176.5730  195.0690  237.2020 H       1  NAG1        0.0642
     16  H2       175.6030  197.9330  237.6600 H       1  NAG1        0.0551
     17  H3       178.3730  196.9310  236.9190 H       1  NAG1        0.0641
     18  H4       177.6010  198.1620  239.5920 H       1  NAG1        0.0682
     19  H5       178.2470  195.2370  239.0040 H       1  NAG1        0.0647
     20  H61      177.3190  196.6610  241.5230 H       1  NAG1        0.0584
     21  H62      178.8120  195.7450  241.2970 H       1  NAG1        0.0584
     22  H81      173.9920  197.1210  233.4890 H       1  NAG1        0.0322
     23  H82      174.8250  198.6010  233.0710 H       1  NAG1        0.0322
     24  H83      175.7180  197.1090  233.2100 H       1  NAG1        0.0322
     25  HN2      176.5770  196.5810  235.1720 H       1  NAG1        0.1491
     26  HO3      177.7280  199.0350  236.1710 H       1  NAG1        0.2100
     27  HO6      176.2480  194.6080  240.9660 H       1  NAG1        0.2095
@<TRIPOS>BOND
     1    23     8    1
     2    24     8    1
     3    22     8    1
     4     8     7    1
     5     7    14    2
     6     7     9   am
     7    25     9    1
     8     9     2    1
     9    26    10    1
    10    17     3    1
    11    10     3    1
    12     2     3    1
    13     2    16    1
    14     2     1    1
    15    15     1    1
    16     3     4    1
    17     1    12    1
    18     4    11    1
    19     4     5    1
    20     4    18    1
    21    19     5    1
    22    12     5    1
    23     5     6    1
    24    27    13    1
    25     6    21    1
    26     6    13    1
    27     6    20    1
