WNM
  -OEChem-02242320043D

 29 30  0     1  0  0  0  0  0999 V2000
    1.5340   -0.1300   -0.0860 C   0  0  0  0  0  0  0  0  0  0  0  0
    3.6050    1.6580    0.3110 C   0  0  0  0  0  0  0  0  0  0  0  0
    2.1670   -0.0670    1.1420 C   0  0  0  0  0  0  0  0  0  0  0  0
   -2.8060    1.2770    0.0690 C   0  0  1  0  0  0  0  0  0  0  0  0
   -3.0750    0.3940    1.3150 C   0  0  0  0  0  0  0  0  0  0  0  0
   -1.8010   -0.4720    1.4070 C   0  0  0  0  0  0  0  0  0  0  0  0
   -2.0330    0.2950   -0.8480 C   0  0  0  0  0  0  0  0  0  0  0  0
    1.9410    0.6970   -1.1160 C   0  0  0  0  0  0  0  0  0  0  0  0
    2.9760    1.5900   -0.9180 C   0  0  0  0  0  0  0  0  0  0  0  0
    3.2030    0.8280    1.3400 C   0  0  0  0  0  0  0  0  0  0  0  0
   -4.0650    1.7020   -0.5580 N   0  0  0  0  0  0  0  0  0  0  0  0
   -1.1890   -0.4920    0.0700 N   0  0  3  0  0  0  0  0  0  0  0  0
    0.1500   -1.5050   -1.7380 O   0  0  0  0  0  0  0  0  0  0  0  0
    0.3910   -2.3070    0.6170 O   0  0  0  0  0  0  0  0  0  0  0  0
    0.2140   -1.2700   -0.3380 S   0  0  0  0  0  0  0  0  0  0  0  0
    4.4140    2.3570    0.4660 H   0  0  0  0  0  0  0  0  0  0  0  0
    1.8530   -0.7160    1.9460 H   0  0  0  0  0  0  0  0  0  0  0  0
   -2.1900    2.1390    0.3260 H   0  0  0  0  0  0  0  0  0  0  0  0
   -3.1870    1.0100    2.2080 H   0  0  0  0  0  0  0  0  0  0  0  0
   -3.9570   -0.2280    1.1640 H   0  0  0  0  0  0  0  0  0  0  0  0
   -1.1070   -0.0360    2.1250 H   0  0  0  0  0  0  0  0  0  0  0  0
   -2.0620   -1.4850    1.7120 H   0  0  0  0  0  0  0  0  0  0  0  0
   -2.7290   -0.3560   -1.3770 H   0  0  0  0  0  0  0  0  0  0  0  0
   -1.4150    0.8450   -1.5570 H   0  0  0  0  0  0  0  0  0  0  0  0
    1.4490    0.6440   -2.0760 H   0  0  0  0  0  0  0  0  0  0  0  0
    3.2910    2.2390   -1.7220 H   0  0  0  0  0  0  0  0  0  0  0  0
    3.6940    0.8800    2.3000 H   0  0  0  0  0  0  0  0  0  0  0  0
   -4.6160    2.2580    0.0790 H   0  0  0  0  0  0  0  0  0  0  0  0
   -3.8910    2.2020   -1.4170 H   0  0  0  0  0  0  0  0  0  0  0  0
  2 10  2  0  0  0  0
  2  9  1  0  0  0  0
  3 10  1  0  0  0  0
  8  9  2  0  0  0  0
  1  3  2  0  0  0  0
  1  8  1  0  0  0  0
  1 15  1  0  0  0  0
 13 15  2  0  0  0  0
 14 15  2  0  0  0  0
 12 15  1  0  0  0  0
  7 12  1  0  0  0  0
  6 12  1  0  0  0  0
  4  7  1  0  0  0  0
  5  6  1  0  0  0  0
  4  5  1  0  0  0  0
  4 11  1  0  0  0  0
  2 16  1  0  0  0  0
  3 17  1  0  0  0  0
  4 18  1  0  0  0  0
  5 19  1  0  0  0  0
  5 20  1  0  0  0  0
  6 21  1  0  0  0  0
  6 22  1  0  0  0  0
  7 23  1  0  0  0  0
  7 24  1  0  0  0  0
  8 25  1  0  0  0  0
  9 26  1  0  0  0  0
 10 27  1  0  0  0  0
 11 28  1  0  0  0  0
 11 29  1  0  0  0  0
M  END
> <OPENEYE_ISO_SMILES>
c1ccc(cc1)S(=O)(=O)N2CC[C@@H](C2)N

> <OPENEYE_INCHI>
InChI=1S/C10H14N2O2S/c11-9-6-7-12(8-9)15(13,14)10-4-2-1-3-5-10/h1-5,9H,6-8,11H2/t9-/m0/s1

> <OPENEYE_INCHIKEY>
ABNRKDROCBKFEH-VIFPVBQESA-N

> <FORMULA>
C10H14N2O2S

$$$$
