@<TRIPOS>MOLECULE
/home/pku/3cl/gett_pdb/7TX0/7TX0_mol2/ligand/7TX0_AR6.pdb
 57 60 0 0 0
SMALL
GASTEIGER

@<TRIPOS>ATOM
      1  N1        45.8000   29.1730    6.5350 N.2   201  AR6201     -0.2420
      2  C2        44.6230   29.4590    5.9750 C.2   201  AR6201      0.1049
      3  N3        44.3760   29.6260    4.6720 N.pl3 201  AR6201     -0.1840
      4  C4        45.4620   29.4420    3.9130 C.ar  201  AR6201      0.1528
      5  C5        46.7370   29.1150    4.3790 C.ar  201  AR6201      0.1287
      6  C6        46.8650   28.9810    5.7640 C.3   201  AR6201      0.2004
      7  N6        48.0760   28.6520    6.3620 N.3   201  AR6201     -0.2985
      8  N7        47.5900   28.9920    3.3080 N.ar  201  AR6201     -0.2346
      9  C8        46.8450   29.2280    2.2380 C.ar  201  AR6201      0.0999
     10  N9        45.5600   29.5240    2.5660 N.ar  201  AR6201     -0.2877
     11  PA        45.6970   26.2080   -1.2280 P.3   201  AR6201      0.2182
     12  PB        44.0520   24.6540   -3.1370 P.3   201  AR6201      0.2182
     13  C1'       44.4360   29.8260    1.6900 C.3   201  AR6201      0.1665
     14  O1A       46.2560   25.7410    0.0690 O.co2 201  AR6201     -0.4371
     15  O1B       43.8110   25.8710   -3.9550 O.2   201  AR6201     -0.5170
     16  C1D       48.7800   22.6570   -1.8670 C.3   201  AR6201      0.1854
     17  O1D       49.8950   22.9110   -2.5370 O.3   201  AR6201     -0.3649
     18  C2'       44.7120   30.3010    0.3730 C.3   201  AR6201      0.1285
     19  O2'       44.9370   31.7240    0.4470 O.3   201  AR6201     -0.3847
     20  O2A       46.6440   26.6360   -2.2950 O.2   201  AR6201     -0.5170
     21  O2B       42.9160   23.7490   -2.8150 O.co2 201  AR6201     -0.4371
     22  C2D       48.2810   21.1710   -1.9200 C.3   201  AR6201      0.1339
     23  O2D       49.3840   20.2690   -1.6090 O.3   201  AR6201     -0.3841
     24  C3'       43.4550   29.9090   -0.4280 C.3   201  AR6201      0.1135
     25  O3'       42.4160   30.8480   -0.3070 O.3   201  AR6201     -0.3864
     26  O3A       44.6890   25.0610   -1.7040 O.3   201  AR6201     -0.2703
     27  C3D       47.6290   21.0080   -3.1090 C.3   201  AR6201      0.1141
     28  O3D       48.4810   20.5070   -4.1900 O.3   201  AR6201     -0.3864
     29  C4'       43.0510   28.5980    0.2920 C.3   201  AR6201      0.1133
     30  O4'       43.6770   28.5750    1.5300 O.3   201  AR6201     -0.3456
     31  C4D       47.1000   22.4570   -3.4500 C.3   201  AR6201      0.1138
     32  O4D       47.6420   23.3150   -2.5150 O.3   201  AR6201     -0.3407
     33  C5'       43.4150   27.3270   -0.4740 C.3   201  AR6201      0.0836
     34  O5'       44.7270   27.4630   -1.0020 O.3   201  AR6201     -0.3246
     35  C5D       45.6080   22.5710   -3.3460 C.3   201  AR6201      0.0837
     36  O5D       45.2350   23.8590   -3.8390 O.3   201  AR6201     -0.3246
     37  H2        43.9090   29.5930    6.5530 H     201  AR6201      0.1015
     38  HN6       48.6510   29.2670    6.5330 H     201  AR6201      0.1209
     39 HN6A       48.2490   27.8330    6.5610 H     201  AR6201      0.1209
     40  H8        47.1710   29.2310    1.3690 H     201  AR6201      0.1030
     41  H1'       43.8870   30.4550    2.1170 H     201  AR6201      0.0866
     42  H1D       48.8550   22.9410   -0.9750 H     201  AR6201      0.0935
     43  H2'       45.4680   29.8660    0.0220 H     201  AR6201      0.0665
     44 HO2'       45.4210   31.9620   -0.1840 H     201  AR6201      0.2101
     45  H2D       47.6390   21.0690   -1.2430 H     201  AR6201      0.0671
     46 HO2D       49.1580   19.7570   -0.9700 H     201  AR6201      0.2101
     47  H3'       43.6660   29.7480   -1.3280 H     201  AR6201      0.0647
     48 HO3'       42.1590   31.0770   -1.0650 H     201  AR6201      0.2100
     49  H3D       46.8990   20.4300   -2.9890 H     201  AR6201      0.0648
     50 HO3D       48.0720   20.5780   -4.9320 H     201  AR6201      0.2100
     51  H4'       42.1220   28.6110    0.4280 H     201  AR6201      0.0647
     52  H4D       47.3840   22.7030   -4.3100 H     201  AR6201      0.0647
     53  H5'       42.8050   27.1980   -1.1750 H     201  AR6201      0.0591
     54 H5'A       43.3850   26.5920    0.1090 H     201  AR6201      0.0591
     55  H5D       45.1880   21.8790   -3.8820 H     201  AR6201      0.0591
     56 H5DA       45.3350   22.4800   -2.4220 H     201  AR6201      0.0591
     57  HD1       50.4210   23.3680   -2.0510 H     201  AR6201      0.2126
@<TRIPOS>UNITY_ATOM_ATTR
14 1
charge -1
21 1
charge -1
@<TRIPOS>BOND
     1    50    28    1
     2    52    31    1
     3    28    27    1
     4    15    12    2
     5    55    35    1
     6    36    35    1
     7    36    12    1
     8    31    35    1
     9    31    27    1
    10    31    32    1
    11    35    56    1
    12    12    21    1
    13    12    26    1
    14    27    49    1
    15    27    22    1
    16    17    57    1
    17    17    16    1
    18    32    16    1
    19    20    11    2
    20    22    16    1
    21    22    23    1
    22    22    45    1
    23    16    42    1
    24    26    11    1
    25    23    46    1
    26    47    24    1
    27    11    34    1
    28    11    14    1
    29    53    33    1
    30    48    25    1
    31    34    33    1
    32    33    54    1
    33    33    29    1
    34    24    25    1
    35    24    29    1
    36    24    18    1
    37    44    19    1
    38    43    18    1
    39    29    51    1
    40    29    30    1
    41    18    19    1
    42    18    13    1
    43    40     9    1
    44    30    13    1
    45    13    41    1
    46    13    10    1
    47     9    10   ar
    48     9     8   ar
    49    10     4   ar
    50     8     5   ar
    51     4     5   ar
    52     4     3    1
    53     5     6    1
    54     3     2    1
    55     6     7    1
    56     6     1    1
    57     2     1    2
    58     2    37    1
    59     7    38    1
    60     7    39    1
