APY
  -OEChem-02242320013D

 16 16  0     0  0  0  0  0  0999 V2000
    0.5070    0.0310    2.7070 N   0  0  0  0  0  0  0  0  0  0  0  0
   -0.7050    0.0150    1.8790 C   0  0  0  0  0  0  0  0  0  0  0  0
   -0.3180    0.0070    0.4220 C   0  0  0  0  0  0  0  0  0  0  0  0
   -1.3040   -0.0070   -0.5460 C   0  0  0  0  0  0  0  0  0  0  0  0
   -0.9380   -0.0130   -1.8820 C   0  0  0  0  0  0  0  0  0  0  0  0
    0.4120   -0.0040   -2.1970 C   0  0  0  0  0  0  0  0  0  0  0  0
    1.3410    0.0100   -1.1740 C   0  0  0  0  0  0  0  0  0  0  0  0
    0.9560    0.0210    0.0860 N   0  0  0  0  0  0  0  0  0  0  0  0
    0.9740   -0.8500    2.5550 H   0  0  0  0  0  0  0  0  0  0  0  0
    0.2020    0.0360    3.6690 H   0  0  0  0  0  0  0  0  0  0  0  0
   -1.2870   -0.8770    2.1050 H   0  0  0  0  0  0  0  0  0  0  0  0
   -1.3020    0.9020    2.0910 H   0  0  0  0  0  0  0  0  0  0  0  0
   -2.3470   -0.0140   -0.2640 H   0  0  0  0  0  0  0  0  0  0  0  0
   -1.6870   -0.0250   -2.6610 H   0  0  0  0  0  0  0  0  0  0  0  0
    0.7330   -0.0090   -3.2280 H   0  0  0  0  0  0  0  0  0  0  0  0
    2.3950    0.0170   -1.4110 H   0  0  0  0  0  0  0  0  0  0  0  0
  1  2  1  0  0  0  0
  1  9  1  0  0  0  0
  1 10  1  0  0  0  0
  2  3  1  0  0  0  0
  2 11  1  0  0  0  0
  2 12  1  0  0  0  0
  3  4  1  0  0  0  0
  3  8  2  0  0  0  0
  4  5  2  0  0  0  0
  4 13  1  0  0  0  0
  5  6  1  0  0  0  0
  5 14  1  0  0  0  0
  6  7  2  0  0  0  0
  6 15  1  0  0  0  0
  7  8  1  0  0  0  0
  7 16  1  0  0  0  0
M  END
> <OPENEYE_ISO_SMILES>
c1ccnc(c1)CN

> <OPENEYE_INCHI>
InChI=1S/C6H8N2/c7-5-6-3-1-2-4-8-6/h1-4H,5,7H2

> <OPENEYE_INCHIKEY>
WOXFMYVTSLAQMO-UHFFFAOYSA-N

> <FORMULA>
C6H8N2

$$$$
