UZ7
  -OEChem-02242320043D

 16 16  0     0  0  0  0  0  0999 V2000
    2.0870   -1.2720   -0.1950 C   0  0  0  0  0  0  0  0  0  0  0  0
    2.8940   -0.2390    0.2430 C   0  0  0  0  0  0  0  0  0  0  0  0
    2.3810    1.0400    0.3610 C   0  0  0  0  0  0  0  0  0  0  0  0
    0.7660   -1.0300   -0.5160 C   0  0  0  0  0  0  0  0  0  0  0  0
    1.0600    1.2880    0.0420 C   0  0  0  0  0  0  0  0  0  0  0  0
    0.2490    0.2520   -0.3990 C   0  0  0  0  0  0  0  0  0  0  0  0
   -1.9850   -0.0120    0.1130 C   0  0  0  0  0  0  0  0  0  0  0  0
   -1.6510   -0.5570    1.1450 O   0  0  0  0  0  0  0  0  0  0  0  0
   -1.0510    0.4940   -0.7140 O   0  0  0  0  0  0  0  0  0  0  0  0
    2.4910   -2.2690   -0.2910 H   0  0  0  0  0  0  0  0  0  0  0  0
    3.9270   -0.4310    0.4940 H   0  0  0  0  0  0  0  0  0  0  0  0
    3.0140    1.8450    0.7040 H   0  0  0  0  0  0  0  0  0  0  0  0
    0.1350   -1.8370   -0.8590 H   0  0  0  0  0  0  0  0  0  0  0  0
    0.6600    2.2860    0.1340 H   0  0  0  0  0  0  0  0  0  0  0  0
   -3.2890    0.0870   -0.2040 O   0  0  0  0  0  0  0  0  0  0  0  0
   -3.9220   -0.2920    0.4210 H   0  0  0  0  0  0  0  0  0  0  0  0
  1  4  2  0  0  0  0
  1  2  1  0  0  0  0
  4  6  1  0  0  0  0
  2  3  2  0  0  0  0
  5  6  2  0  0  0  0
  6  9  1  0  0  0  0
  3  5  1  0  0  0  0
  7  9  1  0  0  0  0
  7  8  2  0  0  0  0
  1 10  1  0  0  0  0
  2 11  1  0  0  0  0
  3 12  1  0  0  0  0
  4 13  1  0  0  0  0
  5 14  1  0  0  0  0
  7 15  1  0  0  0  0
 15 16  1  0  0  0  0
M  END
> <OPENEYE_ISO_SMILES>
c1ccc(cc1)OC(=O)O

> <OPENEYE_INCHI>
InChI=1S/C7H6O3/c8-7(9)10-6-4-2-1-3-5-6/h1-5H,(H,8,9)

> <OPENEYE_INCHIKEY>
QIIPQYDSKRYMFG-UHFFFAOYSA-N

> <FORMULA>
C7H6O3

$$$$
