V1V
  -OEChem-02242320043D

 23 22  0     1  0  0  0  0  0999 V2000
    4.1770   -0.2150    0.0160 C   0  0  0  0  0  0  0  0  0  0  0  0
    2.8390    0.3220   -0.4970 C   0  0  0  0  0  0  0  0  0  0  0  0
    1.6970   -0.3080    0.3030 C   0  0  0  0  0  0  0  0  0  0  0  0
    0.3590    0.2280   -0.2110 C   0  0  2  0  0  0  0  0  0  0  0  0
    0.2740    1.6700    0.0580 N   0  0  0  0  0  0  0  0  0  0  0  0
   -0.7870   -0.4930    0.5030 C   0  0  2  0  0  0  0  0  0  0  0  0
   -0.7030   -1.8950    0.2410 O   0  0  0  0  0  0  0  0  0  0  0  0
   -2.1040    0.0350   -0.0030 C   0  0  0  0  0  0  0  0  0  0  0  0
   -2.8520   -0.6910   -0.6130 O   0  0  0  0  0  0  0  0  0  0  0  0
   -2.4470    1.3130    0.2240 O   0  0  0  0  0  0  0  0  0  0  0  0
    4.2900    0.0380    1.0700 H   0  0  0  0  0  0  0  0  0  0  0  0
    4.2040   -1.2980   -0.1030 H   0  0  0  0  0  0  0  0  0  0  0  0
    4.9910    0.2340   -0.5540 H   0  0  0  0  0  0  0  0  0  0  0  0
    2.8120    1.4050   -0.3780 H   0  0  0  0  0  0  0  0  0  0  0  0
    2.7270    0.0690   -1.5510 H   0  0  0  0  0  0  0  0  0  0  0  0
    1.7240   -1.3910    0.1840 H   0  0  0  0  0  0  0  0  0  0  0  0
    1.8090   -0.0550    1.3570 H   0  0  0  0  0  0  0  0  0  0  0  0
    0.2860    0.0540   -1.2840 H   0  0  0  0  0  0  0  0  0  0  0  0
   -0.5730    2.0600   -0.3280 H   0  0  0  0  0  0  0  0  0  0  0  0
    0.3390    1.8570    1.0480 H   0  0  0  0  0  0  0  0  0  0  0  0
   -0.7130   -0.3190    1.5760 H   0  0  0  0  0  0  0  0  0  0  0  0
   -0.7620   -2.1240   -0.6970 H   0  0  0  0  0  0  0  0  0  0  0  0
   -3.3020    1.6060   -0.1190 H   0  0  0  0  0  0  0  0  0  0  0  0
  8  9  2  0  0  0  0
  6  8  1  0  0  0  0
  6  7  1  0  0  0  0
  4  6  1  0  0  0  0
  4  5  1  0  0  0  0
  3  4  1  0  0  0  0
  2  3  1  0  0  0  0
  1  2  1  0  0  0  0
  8 10  1  0  0  0  0
  1 11  1  0  0  0  0
  1 12  1  0  0  0  0
  1 13  1  0  0  0  0
  2 14  1  0  0  0  0
  2 15  1  0  0  0  0
  3 16  1  0  0  0  0
  3 17  1  0  0  0  0
  4 18  1  0  0  0  0
  5 19  1  0  0  0  0
  5 20  1  0  0  0  0
  6 21  1  0  0  0  0
  7 22  1  0  0  0  0
 10 23  1  0  0  0  0
M  END
> <OPENEYE_ISO_SMILES>
CCC[C@@H]([C@@H](C(=O)O)O)N

> <OPENEYE_INCHI>
InChI=1S/C6H13NO3/c1-2-3-4(7)5(8)6(9)10/h4-5,8H,2-3,7H2,1H3,(H,9,10)/t4-,5-/m0/s1

> <OPENEYE_INCHIKEY>
OIFGOYXLBOWNGQ-WHFBIAKZSA-N

> <FORMULA>
C6H13NO3

$$$$
