T4J
  -OEChem-02242320043D

 34 35  0     0  0  0  0  0  0999 V2000
   -1.8820   -0.6530    0.4100 N   0  0  0  0  0  0  0  0  0  0  0  0
    0.9230    2.4760   -0.4660 C   0  0  0  0  0  0  0  0  0  0  0  0
   -0.0230    1.4720   -0.4110 C   0  0  0  0  0  0  0  0  0  0  0  0
    0.3650    0.1630   -0.1200 C   0  0  0  0  0  0  0  0  0  0  0  0
    1.7090   -0.1250    0.1150 C   0  0  0  0  0  0  0  0  0  0  0  0
   -0.6460   -0.9140   -0.0600 C   0  0  0  0  0  0  0  0  0  0  0  0
   -3.2310    1.3620    0.0790 C   0  0  0  0  0  0  0  0  0  0  0  0
    4.0020    0.6050    0.2920 N   0  0  0  0  0  0  0  0  0  0  0  0
    5.9070   -0.9680    0.4030 C   0  0  0  0  0  0  0  0  0  0  0  0
    3.7720   -1.4650   -0.4730 O   0  0  0  0  0  0  0  0  0  0  0  0
    4.4840   -0.6280    0.0420 C   0  0  0  0  0  0  0  0  0  0  0  0
   -4.0350   -1.2730   -0.5720 C   0  0  0  0  0  0  0  0  0  0  0  0
   -2.9060   -1.6980    0.3730 C   0  0  0  0  0  0  0  0  0  0  0  0
    2.6520    0.8900    0.0570 C   0  0  0  0  0  0  0  0  0  0  0  0
    2.2560    2.1900   -0.2330 C   0  0  0  0  0  0  0  0  0  0  0  0
   -2.1830    0.6700    0.9590 C   0  0  0  0  0  0  0  0  0  0  0  0
   -0.3630   -2.0350   -0.4360 O   0  0  0  0  0  0  0  0  0  0  0  0
   -4.7130    0.3130    0.0010 S   0  0  0  0  0  0  0  0  0  0  0  0
    0.6220    3.4870   -0.6960 H   0  0  0  0  0  0  0  0  0  0  0  0
   -1.0620    1.7000   -0.5930 H   0  0  0  0  0  0  0  0  0  0  0  0
    2.0150   -1.1360    0.3400 H   0  0  0  0  0  0  0  0  0  0  0  0
   -3.4900    2.3280    0.5110 H   0  0  0  0  0  0  0  0  0  0  0  0
   -2.8280    1.5050   -0.9230 H   0  0  0  0  0  0  0  0  0  0  0  0
    4.5900    1.2960    0.6340 H   0  0  0  0  0  0  0  0  0  0  0  0
    5.9400   -1.3600    1.4200 H   0  0  0  0  0  0  0  0  0  0  0  0
    6.2870   -1.7200   -0.2880 H   0  0  0  0  0  0  0  0  0  0  0  0
    6.5220   -0.0710    0.3390 H   0  0  0  0  0  0  0  0  0  0  0  0
   -3.6430   -1.1590   -1.5820 H   0  0  0  0  0  0  0  0  0  0  0  0
   -4.8210   -2.0290   -0.5680 H   0  0  0  0  0  0  0  0  0  0  0  0
   -2.4640   -2.6280    0.0160 H   0  0  0  0  0  0  0  0  0  0  0  0
   -3.3090   -1.8480    1.3750 H   0  0  0  0  0  0  0  0  0  0  0  0
    2.9920    2.9780   -0.2820 H   0  0  0  0  0  0  0  0  0  0  0  0
   -2.5720    0.5640    1.9710 H   0  0  0  0  0  0  0  0  0  0  0  0
   -1.2730    1.2700    0.9800 H   0  0  0  0  0  0  0  0  0  0  0  0
  9 11  1  0  0  0  0
 10 11  2  0  0  0  0
  8 11  1  0  0  0  0
  8 14  1  0  0  0  0
 14 15  2  0  0  0  0
  2 15  1  0  0  0  0
  2  3  2  0  0  0  0
  3  4  1  0  0  0  0
  4  5  2  0  0  0  0
  5 14  1  0  0  0  0
  4  6  1  0  0  0  0
  6 17  2  0  0  0  0
  1  6  1  0  0  0  0
  1 16  1  0  0  0  0
  7 16  1  0  0  0  0
  7 18  1  0  0  0  0
 12 18  1  0  0  0  0
 12 13  1  0  0  0  0
  1 13  1  0  0  0  0
  2 19  1  0  0  0  0
  3 20  1  0  0  0  0
  5 21  1  0  0  0  0
  7 22  1  0  0  0  0
  7 23  1  0  0  0  0
  8 24  1  0  0  0  0
  9 25  1  0  0  0  0
  9 26  1  0  0  0  0
  9 27  1  0  0  0  0
 12 28  1  0  0  0  0
 12 29  1  0  0  0  0
 13 30  1  0  0  0  0
 13 31  1  0  0  0  0
 15 32  1  0  0  0  0
 16 33  1  0  0  0  0
 16 34  1  0  0  0  0
M  END
> <OPENEYE_ISO_SMILES>
CC(=O)Nc1cccc(c1)C(=O)N2CCSCC2

> <OPENEYE_INCHI>
InChI=1S/C13H16N2O2S/c1-10(16)14-12-4-2-3-11(9-12)13(17)15-5-7-18-8-6-15/h2-4,9H,5-8H2,1H3,(H,14,16)

> <OPENEYE_INCHIKEY>
GUMMRKWNILQOGK-UHFFFAOYSA-N

> <FORMULA>
C13H16N2O2S

$$$$
