@<TRIPOS>MOLECULE
/home/pku/3cl/gett_pdb/5RUG/5RUG_mol2/ligand/5RUG_NOA.pdb
 24 25 0 0 0
SMALL
GASTEIGER

@<TRIPOS>ATOM
      1  C        -43.4330  -32.0800    2.3400 C.2   201  NOA201      0.0789
      2  CA       -42.9850  -31.5230    0.9900 C.3   201  NOA201      0.1287
      3  C1       -44.3860  -29.7030    0.5480 C.ar  201  NOA201      0.1287
      4  C2       -45.4820  -30.5670    0.4940 C.ar  201  NOA201     -0.0193
      5  C3       -46.7490  -30.0540    0.0900 C.ar  201  NOA201     -0.0577
      6  C4       -46.8320  -28.7060   -0.0340 C.ar  201  NOA201     -0.0538
      7  C4A      -45.7570  -27.8710   -0.0070 C.ar  201  NOA201     -0.0144
      8  C5       -45.8610  -26.5410   -0.3060 C.ar  201  NOA201     -0.0539
      9  C6       -44.8210  -25.6700   -0.1810 C.ar  201  NOA201     -0.0612
     10  C7       -43.5610  -26.1670    0.1190 C.ar  201  NOA201     -0.0611
     11  C8       -43.4390  -27.5340    0.3920 C.ar  201  NOA201     -0.0505
     12  C1A      -44.5460  -28.3160    0.3410 C.ar  201  NOA201      0.0238
     13  O        -43.7200  -33.2800    2.3190 O.co2 201  NOA201     -0.5463
     14  OXT      -43.4340  -31.4810    3.3540 O.co2 201  NOA201     -0.5463
     15  O1       -43.1360  -30.1320    0.9100 O.3   201  NOA201     -0.4856
     16  HA1      -42.0390  -31.7170    0.8960 H     201  NOA201      0.0760
     17  HA2      -43.4460  -31.9750    0.2670 H     201  NOA201      0.0760
     18  H2       -45.3860  -31.4750    0.6660 H     201  NOA201      0.0654
     19  H3       -47.5090  -30.5890    0.0840 H     201  NOA201      0.0619
     20  H4       -47.6430  -28.3510   -0.3210 H     201  NOA201      0.0624
     21  H5       -46.7040  -26.1970   -0.4950 H     201  NOA201      0.0624
     22  H6       -44.9370  -24.7680   -0.3750 H     201  NOA201      0.0618
     23  H7       -42.8290  -25.5980    0.1950 H     201  NOA201      0.0618
     24  H8       -42.6150  -27.8960    0.6260 H     201  NOA201      0.0625
@<TRIPOS>UNITY_ATOM_ATTR
14 1
charge -1
@<TRIPOS>BOND
     1    21     8    1
     2    22     9    1
     3    20     6    1
     4     8     9   ar
     5     8     7   ar
     6     9    10   ar
     7     6     7   ar
     8     6     5   ar
     9     7    12   ar
    10    19     5    1
    11     5     4   ar
    12    10    23    1
    13    10    11   ar
    14    17     2    1
    15    12    11   ar
    16    12     3   ar
    17    11    24    1
    18     4     3   ar
    19     4    18    1
    20     3    15    1
    21    16     2    1
    22    15     2    1
    23     2     1    1
    24    13     1   ar
    25     1    14   ar
