RWQ
  -OEChem-02242320043D

 39 42  0     1  0  0  0  0  0999 V2000
    1.7680    2.1240   -0.3130 C   0  0  0  0  0  0  0  0  0  0  0  0
    1.3960   -1.4940    0.2680 C   0  0  0  0  0  0  0  0  0  0  0  0
    2.4030   -2.4340    0.2540 C   0  0  0  0  0  0  0  0  0  0  0  0
    3.7140   -2.0490    0.0030 C   0  0  0  0  0  0  0  0  0  0  0  0
    4.0230   -0.7230   -0.2250 C   0  0  0  0  0  0  0  0  0  0  0  0
    3.0180    0.2380   -0.2180 C   0  0  0  0  0  0  0  0  0  0  0  0
    1.6930   -0.1540    0.0300 C   0  0  0  0  0  0  0  0  0  0  0  0
   -0.0120    3.5860   -0.2630 C   0  0  0  0  0  0  0  0  0  0  0  0
   -4.3440   -1.0890   -1.4620 C   0  0  0  0  0  0  0  0  0  0  0  0
   -3.2850   -0.9740   -0.3640 C   0  0  2  0  0  0  0  0  0  0  0  0
   -3.9720   -0.7910    0.9920 C   0  0  0  0  0  0  0  0  0  0  0  0
   -2.9050   -0.6160    2.0760 C   0  0  0  0  0  0  0  0  0  0  0  0
   -2.0200    0.5820    1.7260 C   0  0  0  0  0  0  0  0  0  0  0  0
   -0.4770    1.3620    0.1320 C   0  0  0  0  0  0  0  0  0  0  0  0
    0.8830    1.0730   -0.0280 C   0  0  0  0  0  0  0  0  0  0  0  0
   -2.3890    0.2350   -0.6440 C   0  0  0  0  0  0  0  0  0  0  0  0
    4.6950   -2.9780   -0.0080 F   0  0  0  0  0  0  0  0  0  0  0  0
   -1.3850    0.3590    0.4210 N   0  0  2  0  0  0  0  0  0  0  0  0
    3.0350    1.6070   -0.4260 N   0  0  0  0  0  0  0  0  0  0  0  0
    1.2740    3.3580   -0.4230 N   0  0  0  0  0  0  0  0  0  0  0  0
   -0.8750    2.6260    0.0120 N   0  0  0  0  0  0  0  0  0  0  0  0
   -5.1060   -2.2820   -1.2650 O   0  0  0  0  0  0  0  0  0  0  0  0
    0.3770   -1.7960    0.4640 H   0  0  0  0  0  0  0  0  0  0  0  0
    2.1730   -3.4720    0.4390 H   0  0  0  0  0  0  0  0  0  0  0  0
    5.0450   -0.4330   -0.4190 H   0  0  0  0  0  0  0  0  0  0  0  0
   -0.3750    4.5980   -0.3610 H   0  0  0  0  0  0  0  0  0  0  0  0
   -5.0060   -0.2240   -1.4210 H   0  0  0  0  0  0  0  0  0  0  0  0
   -3.8560   -1.1270   -2.4360 H   0  0  0  0  0  0  0  0  0  0  0  0
   -2.6790   -1.8800   -0.3470 H   0  0  0  0  0  0  0  0  0  0  0  0
   -4.6080    0.0940    0.9610 H   0  0  0  0  0  0  0  0  0  0  0  0
   -4.5770   -1.6690    1.2150 H   0  0  0  0  0  0  0  0  0  0  0  0
   -3.3880   -0.4430    3.0380 H   0  0  0  0  0  0  0  0  0  0  0  0
   -2.2930   -1.5160    2.1330 H   0  0  0  0  0  0  0  0  0  0  0  0
   -2.6300    1.4840    1.6830 H   0  0  0  0  0  0  0  0  0  0  0  0
   -1.2500    0.7010    2.4890 H   0  0  0  0  0  0  0  0  0  0  0  0
   -1.8870    0.1010   -1.6020 H   0  0  0  0  0  0  0  0  0  0  0  0
   -2.9970    1.1390   -0.6760 H   0  0  0  0  0  0  0  0  0  0  0  0
    3.8300    2.1270   -0.6240 H   0  0  0  0  0  0  0  0  0  0  0  0
   -5.7980   -2.4200   -1.9260 H   0  0  0  0  0  0  0  0  0  0  0  0
 11 12  1  0  0  0  0
 10 11  1  0  0  0  0
  9 10  1  0  0  0  0
  9 22  1  0  0  0  0
 12 13  1  0  0  0  0
 10 16  1  0  0  0  0
 13 18  1  0  0  0  0
 16 18  1  0  0  0  0
 14 18  1  0  0  0  0
  2  3  2  0  0  0  0
  2  7  1  0  0  0  0
  3  4  1  0  0  0  0
 14 21  2  0  0  0  0
 14 15  1  0  0  0  0
  7 15  1  0  0  0  0
  6  7  2  0  0  0  0
  4 17  1  0  0  0  0
  4  5  2  0  0  0  0
  8 21  1  0  0  0  0
  1 15  2  0  0  0  0
  5  6  1  0  0  0  0
  6 19  1  0  0  0  0
  8 20  2  0  0  0  0
  1 19  1  0  0  0  0
  1 20  1  0  0  0  0
  2 23  1  0  0  0  0
  3 24  1  0  0  0  0
  5 25  1  0  0  0  0
  8 26  1  0  0  0  0
  9 27  1  0  0  0  0
  9 28  1  0  0  0  0
 10 29  1  0  0  0  0
 11 30  1  0  0  0  0
 11 31  1  0  0  0  0
 12 32  1  0  0  0  0
 12 33  1  0  0  0  0
 13 34  1  0  0  0  0
 13 35  1  0  0  0  0
 16 36  1  0  0  0  0
 16 37  1  0  0  0  0
 19 38  1  0  0  0  0
 22 39  1  0  0  0  0
M  END
> <OPENEYE_ISO_SMILES>
c1cc2c(cc1F)[nH]c3c2c(ncn3)[N@]4CCC[C@H](C4)CO

> <OPENEYE_INCHI>
InChI=1S/C16H17FN4O/c17-11-3-4-12-13(6-11)20-15-14(12)16(19-9-18-15)21-5-1-2-10(7-21)8-22/h3-4,6,9-10,22H,1-2,5,7-8H2,(H,18,19,20)/t10-/m1/s1

> <OPENEYE_INCHIKEY>
LEHSMGCFXRLFLE-SNVBAGLBSA-N

> <FORMULA>
C16H17FN4O

$$$$
