54G
  -OEChem-02242320013D

 19 19  0     0  0  0  0  0  0999 V2000
    2.1850    0.9050   -0.0110 C   0  0  0  0  0  0  0  0  0  0  0  0
    0.7320   -1.0010    0.0070 C   0  0  0  0  0  0  0  0  0  0  0  0
   -1.7410   -0.7150   -0.0060 C   0  0  0  0  0  0  0  0  0  0  0  0
   -0.3790   -0.1520   -0.0030 C   0  0  0  0  0  0  0  0  0  0  0  0
   -0.1890    1.2370   -0.0110 C   0  0  0  0  0  0  0  0  0  0  0  0
    1.0970    1.7540   -0.0210 C   0  0  0  0  0  0  0  0  0  0  0  0
   -1.9190   -2.0500    0.0020 O   0  0  0  0  0  0  0  0  0  0  0  0
   -2.7040    0.0260   -0.0150 O   0  0  0  0  0  0  0  0  0  0  0  0
   -1.2590    2.0700   -0.0210 O   0  0  0  0  0  0  0  0  0  0  0  0
    2.0030   -0.4690    0.0030 C   0  0  0  0  0  0  0  0  0  0  0  0
    3.1990   -1.3850    0.0140 C   0  0  0  0  0  0  0  0  0  0  0  0
    3.1850    1.3130   -0.0180 H   0  0  0  0  0  0  0  0  0  0  0  0
    0.5940   -2.0720    0.0130 H   0  0  0  0  0  0  0  0  0  0  0  0
    1.2480    2.8240   -0.0360 H   0  0  0  0  0  0  0  0  0  0  0  0
   -2.8310   -2.3720    0.0000 H   0  0  0  0  0  0  0  0  0  0  0  0
   -1.5740    2.3180    0.8590 H   0  0  0  0  0  0  0  0  0  0  0  0
    3.4890   -1.6160   -1.0110 H   0  0  0  0  0  0  0  0  0  0  0  0
    4.0280   -0.8940    0.5240 H   0  0  0  0  0  0  0  0  0  0  0  0
    2.9460   -2.3070    0.5370 H   0  0  0  0  0  0  0  0  0  0  0  0
 10 11  1  0  0  0  0
  2 10  2  0  0  0  0
  1 10  1  0  0  0  0
  2  4  1  0  0  0  0
  1  6  2  0  0  0  0
  3  8  2  0  0  0  0
  3  4  1  0  0  0  0
  4  5  2  0  0  0  0
  3  7  1  0  0  0  0
  5  6  1  0  0  0  0
  5  9  1  0  0  0  0
  1 12  1  0  0  0  0
  2 13  1  0  0  0  0
  6 14  1  0  0  0  0
  7 15  1  0  0  0  0
  9 16  1  0  0  0  0
 11 17  1  0  0  0  0
 11 18  1  0  0  0  0
 11 19  1  0  0  0  0
M  END
> <OPENEYE_ISO_SMILES>
Cc1ccc(c(c1)C(=O)O)O

> <OPENEYE_INCHI>
InChI=1S/C8H8O3/c1-5-2-3-7(9)6(4-5)8(10)11/h2-4,9H,1H3,(H,10,11)

> <OPENEYE_INCHIKEY>
DLGBEGBHXSAQOC-UHFFFAOYSA-N

> <FORMULA>
C8H8O3

$$$$
