4FS
  -OEChem-02242320003D

 19 20  0     0  0  0  0  0  0999 V2000
    1.7690    1.1710   -0.0020 C   0  0  0  0  0  0  0  0  0  0  0  0
   -2.6500   -0.9980   -0.0000 C   0  0  0  0  0  0  0  0  0  0  0  0
   -1.8250    1.2530   -0.0010 C   0  0  0  0  0  0  0  0  0  0  0  0
   -1.3870   -1.5060    0.0010 C   0  0  0  0  0  0  0  0  0  0  0  0
    3.3910   -0.6320   -0.0000 N   0  0  0  0  0  0  0  0  0  0  0  0
    2.0630   -0.1990   -0.0010 C   0  0  0  0  0  0  0  0  0  0  0  0
    1.0330   -1.1190    0.0000 C   0  0  0  0  0  0  0  0  0  0  0  0
   -0.2870   -0.6320    0.0000 C   0  0  0  0  0  0  0  0  0  0  0  0
   -0.5060    0.7680   -0.0010 C   0  0  0  0  0  0  0  0  0  0  0  0
    0.5350    1.6080    0.0030 N   0  0  0  0  0  0  0  0  0  0  0  0
   -2.8670    0.3780   -0.0000 C   0  0  0  0  0  0  0  0  0  0  0  0
    2.5800    1.8840   -0.0020 H   0  0  0  0  0  0  0  0  0  0  0  0
   -3.4950   -1.6710   -0.0010 H   0  0  0  0  0  0  0  0  0  0  0  0
   -2.0110    2.3170   -0.0020 H   0  0  0  0  0  0  0  0  0  0  0  0
   -1.2310   -2.5750    0.0010 H   0  0  0  0  0  0  0  0  0  0  0  0
    4.1130    0.0170   -0.0000 H   0  0  0  0  0  0  0  0  0  0  0  0
    3.5920   -1.5810    0.0010 H   0  0  0  0  0  0  0  0  0  0  0  0
    1.2350   -2.1800    0.0010 H   0  0  0  0  0  0  0  0  0  0  0  0
   -3.8790    0.7560   -0.0000 H   0  0  0  0  0  0  0  0  0  0  0  0
  1 10  2  0  0  0  0
  9 10  1  0  0  0  0
  3  9  2  0  0  0  0
  3 11  1  0  0  0  0
  1  6  1  0  0  0  0
  8  9  1  0  0  0  0
  2 11  2  0  0  0  0
  5  6  1  0  0  0  0
  6  7  2  0  0  0  0
  7  8  1  0  0  0  0
  4  8  2  0  0  0  0
  2  4  1  0  0  0  0
  1 12  1  0  0  0  0
  2 13  1  0  0  0  0
  3 14  1  0  0  0  0
  4 15  1  0  0  0  0
  5 16  1  0  0  0  0
  5 17  1  0  0  0  0
  7 18  1  0  0  0  0
 11 19  1  0  0  0  0
M  END
> <OPENEYE_ISO_SMILES>
c1ccc2c(c1)cc(cn2)N

> <OPENEYE_INCHI>
InChI=1S/C9H8N2/c10-8-5-7-3-1-2-4-9(7)11-6-8/h1-6H,10H2

> <OPENEYE_INCHIKEY>
SVNCRRZKBNSMIV-UHFFFAOYSA-N

> <FORMULA>
C9H8N2

$$$$
