@<TRIPOS>MOLECULE
/home/pku/3cl/gett_pdb/7LKW/7LKW_mol2/ligand/7LKW_Y8S.pdb
 32 34 0 0 0
SMALL
GASTEIGER

@<TRIPOS>ATOM
      1  N11       10.2910   20.2570   27.2540 N.am  401  Y8S401     -0.2030
      2  C12       10.7770   21.5110   27.6940 C.2   401  Y8S401      0.2614
      3  C14       13.2580   21.7890   28.1610 C.3   401  Y8S401      0.0312
      4  N18       12.0700   23.4560   26.8140 N.am  401  Y8S401     -0.1611
      5  C19       11.1580   23.9120   25.9500 C.2   401  Y8S401      0.4215
      6  C21        9.9650   25.7950   25.0200 C.3   401  Y8S401      0.2101
      7  C22       10.4020   27.0270   24.2040 C.3   401  Y8S401      0.0442
      8  C23        9.3000   27.6310   23.3000 C.3   401  Y8S401      0.0041
      9  C24        8.4290   28.7040   23.9630 C.3   401  Y8S401      0.0048
     10  C25        8.3850   28.5240   25.4790 C.3   401  Y8S401      0.0047
     11  C26        9.7870   28.7860   25.9780 C.3   401  Y8S401      0.0218
     12  C27       10.8680   28.1480   25.1040 C.3   401  Y8S401      0.0080
     13  C02        6.6980   20.9530   24.7200 C.2   401  Y8S401      0.2453
     14  C04        5.6650   22.5800   26.1610 C.2   401  Y8S401      0.0627
     15  C05        6.8460   21.9550   26.9290 C.3   401  Y8S401      0.0534
     16  C06        7.6080   21.0370   25.9480 C.3   401  Y8S401      0.0861
     17  C07        7.9280   19.6650   26.5600 C.3   401  Y8S401      0.0339
     18  C08        8.9900   19.7200   27.7230 C.3   401  Y8S401      0.1287
     19  C09        9.1720   18.2860   28.2330 C.3   401  Y8S401      0.2036
     20  C13       12.1490   22.0260   27.1480 C.3   401  Y8S401      0.1761
     21  C15       14.6020   22.3180   27.7090 C.3   401  Y8S401      0.0022
     22  C16       15.6770   22.1370   28.8010 C.3   401  Y8S401      0.0001
     23  C17       15.0660   21.6410   26.4250 C.3   401  Y8S401      0.0001
     24  C28        9.8980   30.2500   25.8930 C.2   401  Y8S401     -0.0310
     25  C29        9.5690   30.8470   24.7560 C.2   401  Y8S401     -0.0307
     26  C30        8.9290   30.1300   23.5970 C.3   401  Y8S401      0.0257
     27  N03        5.6310   21.8400   24.9090 N.am  401  Y8S401     -0.1826
     28  O01        6.8390   20.2680   23.7490 O.2   401  Y8S401     -0.2730
     29  O10        9.9140   18.4120   29.3970 O.3   401  Y8S401     -0.2185
     30  O20       10.9410   25.2640   25.9190 O.3   401  Y8S401     -0.4335
     31  O31       10.5410   23.1740   25.2210 O.2   401  Y8S401     -0.2246
     32  O32       10.1390   22.2020   28.4470 O.2   401  Y8S401     -0.2715
@<TRIPOS>BOND
     1     8     9    1
     2     8     7    1
     3    26     9    1
     4    26    25    1
     5    28    13    2
     6     9    10    1
     7     7     6    1
     8     7    12    1
     9    13    27    1
    10    13    16    1
    11    25    24    2
    12    27    14    2
    13     6    30    1
    14    12    11    1
    15    31     5    2
    16    10    11    1
    17    24    11    1
    18    30     5    1
    19    16    17    1
    20    16    15    1
    21     5     4   am
    22    14    15    1
    23    23    21    1
    24    17    18    1
    25     4    20    1
    26    20     2    1
    27    20     3    1
    28     1     2   am
    29     1    18    1
    30     2    32    2
    31    21     3    1
    32    21    22    1
    33    18    19    1
    34    19    29    1
