W1S
  -OEChem-02242320043D

 23 24  0     1  0  0  0  0  0999 V2000
    1.5750   -0.1060   -0.1480 N   0  0  0  0  0  0  0  0  0  0  0  0
    1.8500   -1.5380   -0.2930 C   0  0  0  0  0  0  0  0  0  0  0  0
    2.4290    0.9340   -0.3660 C   0  0  0  0  0  0  0  0  0  0  0  0
    1.7390    2.0630   -0.1050 C   0  0  0  0  0  0  0  0  0  0  0  0
    0.3900    0.4180    0.2450 C   0  0  0  0  0  0  0  0  0  0  0  0
   -2.7080   -0.4390   -0.8340 O   0  0  0  0  0  0  0  0  0  0  0  0
   -2.0510    0.2020   -0.0410 C   0  0  0  0  0  0  0  0  0  0  0  0
   -2.4160    1.4600    0.2760 N   0  0  0  0  0  0  0  0  0  0  0  0
   -0.8260   -0.4090    0.5900 C   0  0  1  0  0  0  0  0  0  0  0  0
    0.4950    1.7150    0.2640 N   0  0  0  0  0  0  0  0  0  0  0  0
    0.7690   -2.3260    0.4550 C   0  0  0  0  0  0  0  0  0  0  0  0
   -0.6130   -1.8260    0.0410 C   0  0  0  0  0  0  0  0  0  0  0  0
    1.8340   -1.8070   -1.3490 H   0  0  0  0  0  0  0  0  0  0  0  0
    2.8280   -1.7670    0.1300 H   0  0  0  0  0  0  0  0  0  0  0  0
    3.4580    0.8670   -0.6870 H   0  0  0  0  0  0  0  0  0  0  0  0
    2.1200    3.0710   -0.1780 H   0  0  0  0  0  0  0  0  0  0  0  0
   -3.2050    1.8530   -0.1290 H   0  0  0  0  0  0  0  0  0  0  0  0
   -1.8910    1.9720    0.9110 H   0  0  0  0  0  0  0  0  0  0  0  0
   -0.9500   -0.4470    1.6720 H   0  0  0  0  0  0  0  0  0  0  0  0
    0.8610   -3.3850    0.2150 H   0  0  0  0  0  0  0  0  0  0  0  0
    0.8930   -2.1840    1.5280 H   0  0  0  0  0  0  0  0  0  0  0  0
   -1.3770   -2.4900    0.4440 H   0  0  0  0  0  0  0  0  0  0  0  0
   -0.6820   -1.8090   -1.0460 H   0  0  0  0  0  0  0  0  0  0  0  0
  6  7  2  0  0  0  0
  7  8  1  0  0  0  0
  7  9  1  0  0  0  0
  4 10  1  0  0  0  0
  5 10  2  0  0  0  0
  3  4  2  0  0  0  0
  5  9  1  0  0  0  0
  9 12  1  0  0  0  0
  1  5  1  0  0  0  0
  1  3  1  0  0  0  0
 11 12  1  0  0  0  0
  1  2  1  0  0  0  0
  2 11  1  0  0  0  0
  2 13  1  0  0  0  0
  2 14  1  0  0  0  0
  3 15  1  0  0  0  0
  4 16  1  0  0  0  0
  8 17  1  0  0  0  0
  8 18  1  0  0  0  0
  9 19  1  0  0  0  0
 11 20  1  0  0  0  0
 11 21  1  0  0  0  0
 12 22  1  0  0  0  0
 12 23  1  0  0  0  0
M  END
> <OPENEYE_ISO_SMILES>
c1cn2c(n1)[C@H](CCC2)C(=O)N

> <OPENEYE_INCHI>
InChI=1S/C8H11N3O/c9-7(12)6-2-1-4-11-5-3-10-8(6)11/h3,5-6H,1-2,4H2,(H2,9,12)/t6-/m1/s1

> <OPENEYE_INCHIKEY>
VSXNZKCCQSDVAD-ZCFIWIBFSA-N

> <FORMULA>
C8H11N3O

$$$$
