@<TRIPOS>MOLECULE
/home/pku/3cl/gett_pdb/5RUX/5RUX_mol2/ligand/5RUX_W6P.pdb
 17 18 0 0 0
SMALL
GASTEIGER

@<TRIPOS>ATOM
      1  C02      -45.7950  -36.1060   -0.8100 C.2   201  W6P201      0.2216
      2  C03      -46.1120  -35.0930   -1.8370 C.3   201  W6P201      0.0512
      3  C04      -44.9380  -35.0500   -2.7820 C.ar  201  W6P201     -0.0174
      4  C05      -44.6800  -34.3050   -3.9190 C.ar  201  W6P201     -0.0564
      5  C06      -43.4640  -34.4840   -4.5880 C.ar  201  W6P201     -0.0614
      6  C07      -42.5000  -35.4100   -4.1310 C.ar  201  W6P201     -0.0600
      7  C08      -42.7670  -36.1470   -2.9950 C.ar  201  W6P201     -0.0402
      8  C09      -43.9760  -35.9810   -2.3290 C.ar  201  W6P201      0.0370
      9  N10      -44.5000  -36.6470   -1.0770 N.am  201  W6P201     -0.2850
     10  O01      -46.4540  -36.4490    0.0890 O.2   201  W6P201     -0.2751
     11 H032      -46.8890  -35.3420   -2.3030 H     201  W6P201      0.0408
     12 H031      -46.2290  -34.2530   -1.4330 H     201  W6P201      0.0408
     13 H051      -45.3010  -33.6870   -4.2280 H     201  W6P201      0.0621
     14 H061      -43.2640  -33.9920   -5.3430 H     201  W6P201      0.0618
     15 H071      -41.6970  -35.5180   -4.5850 H     201  W6P201      0.0618
     16 H081      -42.1450  -36.7630   -2.6840 H     201  W6P201      0.0636
     17 H101      -44.0990  -37.2550   -0.6190 H     201  W6P201      0.1548
@<TRIPOS>BOND
     1    14     5    1
     2     5     6   ar
     3     5     4   ar
     4    15     6    1
     5    13     4    1
     6     6     7   ar
     7     4     3   ar
     8     7    16    1
     9     7     8   ar
    10     3     8   ar
    11     3     2    1
    12     8     9    1
    13    11     2    1
    14     2    12    1
    15     2     1    1
    16     9     1   am
    17     9    17    1
    18     1    10    2
