@<TRIPOS>MOLECULE
/home/pku/3cl/gett_pdb/8DGY/8DGY_mol2/ligand/8DGY_S9U.pdb
 33 35 0 0 0
SMALL
GASTEIGER

@<TRIPOS>ATOM
      1  C14      -20.2800   24.0220    7.6350 C.2   401  S9U401      0.2410
      2  C16      -22.5770   23.4960    7.7170 C.3   401  S9U401      0.1156
      3  C17      -22.4100   24.6880    6.7680 C.3   401  S9U401      0.0326
      4  C19      -20.6700   28.5560    5.3670 C.3   401  S9U401      0.2036
      5  C13      -20.8910   24.8330    6.5140 C.3   401  S9U401      0.0818
      6  C12      -20.3690   26.2680    6.4580 C.3   401  S9U401      0.0335
      7  C11      -21.0510   27.0730    5.3360 C.3   401  S9U401      0.1287
      8  C02      -21.4990   23.1490    2.5460 C.2   401  S9U401      0.4215
      9  C04      -20.9830   25.4370    1.8730 C.3   401  S9U401      0.1761
     10  C05      -21.2580   26.3850    0.7190 C.3   401  S9U401      0.0312
     11  C06      -20.6040   25.9530   -0.5920 C.3   401  S9U401      0.0022
     12  C07      -19.0900   25.8340   -0.4600 C.3   401  S9U401      0.0001
     13  C08      -20.8960   26.9270   -1.7200 C.3   401  S9U401      0.0001
     14  C09      -21.5320   26.0220    3.1640 C.2   401  S9U401      0.2614
     15  C23      -22.3230   21.0300    3.1320 C.3   401  S9U401      0.2100
     16  C24      -22.9710   19.8270    2.5290 C.3   401  S9U401      0.0439
     17  C25      -22.2270   19.0370    1.4370 C.3   401  S9U401      0.0037
     18  C26      -22.9760   18.5930    0.2060 C.3   401  S9U401      0.0001
     19  C27      -23.1830   17.0880    0.0730 C.3   401  S9U401      0.0000
     20  C28      -24.2260   16.6680   -0.9620 C.3   401  S9U401      0.0000
     21  C29      -24.4100   15.1750   -0.9960 C.3   401  S9U401      0.0000
     22  C30      -23.1030   14.4620   -1.3080 C.3   401  S9U401      0.0000
     23  C31      -22.0280   14.8700   -0.3200 C.3   401  S9U401      0.0000
     24  C32      -21.8720   16.3800   -0.2590 C.3   401  S9U401      0.0000
     25  C33      -22.4810   18.4210    2.8060 C.3   401  S9U401      0.0038
     26  N03      -21.6840   24.1670    1.6450 N.am  401  S9U401     -0.1611
     27  N10      -20.6610   26.5180    4.0790 N.am  401  S9U401     -0.2030
     28  N15      -21.2500   23.2940    8.2840 N.am  401  S9U401     -0.2054
     29  O01      -20.6880   23.0900    3.4560 O.2   401  S9U401     -0.2246
     30  O18      -19.0980   23.9710    7.9830 O.2   401  S9U401     -0.2734
     31  O20      -21.0850   29.0860    6.5920 O.3   401  S9U401     -0.2185
     32  O21      -22.7670   26.0330    3.4020 O.2   401  S9U401     -0.2715
     33  O22      -22.3700   22.1770    2.3000 O.3   401  S9U401     -0.4335
@<TRIPOS>BOND
     1    13    11    1
     2    22    21    1
     3    22    23    1
     4    21    20    1
     5    20    19    1
     6    11    12    1
     7    11    10    1
     8    23    24    1
     9    24    19    1
    10    19    18    1
    11    18    17    1
    12    10     9    1
    13    17    16    1
    14    17    25    1
    15    26     9    1
    16    26     8   am
    17     9    14    1
    18    33     8    1
    19    33    15    1
    20    16    25    1
    21    16    15    1
    22     8    29    2
    23    14    32    2
    24    14    27   am
    25    27     7    1
    26     7     4    1
    27     7     6    1
    28     4    31    1
    29     6     5    1
    30     5     3    1
    31     5     1    1
    32     3     2    1
    33     1    30    2
    34     1    28   am
    35     2    28    1
