0OI
  -OEChem-02242320003D

 21 21  0     0  0  0  0  0  0999 V2000
    1.7090   -1.1500   -0.4070 O   0  0  0  0  0  0  0  0  0  0  0  0
    4.2170   -0.1720   -0.2630 C   0  0  0  0  0  0  0  0  0  0  0  0
    1.8050   -0.0280    0.0500 C   0  0  0  0  0  0  0  0  0  0  0  0
   -0.5660    0.0740    0.2390 C   0  0  0  0  0  0  0  0  0  0  0  0
   -0.7400   -1.2990    0.3330 C   0  0  0  0  0  0  0  0  0  0  0  0
   -1.9910   -1.8510    0.1360 C   0  0  0  0  0  0  0  0  0  0  0  0
   -3.0700   -1.0370   -0.1540 C   0  0  0  0  0  0  0  0  0  0  0  0
   -2.9020    0.3330   -0.2490 C   0  0  0  0  0  0  0  0  0  0  0  0
   -1.6520    0.8910   -0.0530 C   0  0  0  0  0  0  0  0  0  0  0  0
   -1.4880    2.2290   -0.1450 F   0  0  0  0  0  0  0  0  0  0  0  0
    3.0170    0.5510    0.1650 N   0  0  0  0  0  0  0  0  0  0  0  0
    0.7010    0.6370    0.4440 N   0  0  0  0  0  0  0  0  0  0  0  0
    5.0960    0.4510   -0.0950 H   0  0  0  0  0  0  0  0  0  0  0  0
    4.3110   -1.0930    0.3120 H   0  0  0  0  0  0  0  0  0  0  0  0
    4.1390   -0.4120   -1.3230 H   0  0  0  0  0  0  0  0  0  0  0  0
    0.1020   -1.9360    0.5590 H   0  0  0  0  0  0  0  0  0  0  0  0
   -2.1260   -2.9200    0.2090 H   0  0  0  0  0  0  0  0  0  0  0  0
   -4.0470   -1.4720   -0.3080 H   0  0  0  0  0  0  0  0  0  0  0  0
   -3.7470    0.9660   -0.4760 H   0  0  0  0  0  0  0  0  0  0  0  0
    3.0940    1.4460    0.5300 H   0  0  0  0  0  0  0  0  0  0  0  0
    0.7830    1.5050    0.8680 H   0  0  0  0  0  0  0  0  0  0  0  0
  2 11  1  0  0  0  0
  1  3  2  0  0  0  0
  3 11  1  0  0  0  0
  3 12  1  0  0  0  0
  4 12  1  0  0  0  0
  4  5  2  0  0  0  0
  5  6  1  0  0  0  0
  4  9  1  0  0  0  0
  6  7  2  0  0  0  0
  9 10  1  0  0  0  0
  8  9  2  0  0  0  0
  7  8  1  0  0  0  0
  2 13  1  0  0  0  0
  2 14  1  0  0  0  0
  2 15  1  0  0  0  0
  5 16  1  0  0  0  0
  6 17  1  0  0  0  0
  7 18  1  0  0  0  0
  8 19  1  0  0  0  0
 11 20  1  0  0  0  0
 12 21  1  0  0  0  0
M  END
> <OPENEYE_ISO_SMILES>
CNC(=O)Nc1ccccc1F

> <OPENEYE_INCHI>
InChI=1S/C8H9FN2O/c1-10-8(12)11-7-5-3-2-4-6(7)9/h2-5H,1H3,(H2,10,11,12)

> <OPENEYE_INCHIKEY>
KCHHKGGVOQEHPF-UHFFFAOYSA-N

> <FORMULA>
C8H9FN2O

$$$$
