@<TRIPOS>MOLECULE
/home/pku/3cl/gett_pdb/5RTE/5RTE_mol2/ligand/5RTE_4FL.pdb
 36 25 0 0 0
SMALL
GASTEIGER

@<TRIPOS>ATOM
      1  C4       -48.3220  -29.1710    5.6000 C.3   201  4FL201      0.0000
      2  C4       -47.5060  -29.1120    3.5060 C.1   201  4FL201      0.0000
      3  C7       -49.7730  -29.0380    3.7570 C.3   201  4FL201      0.0000
      4  C7       -48.4240  -29.1710    5.6740 C.3   201  4FL201     -0.0309
      5  C5       -47.2580  -29.1430    4.7760 C.1   201  4FL201      0.0000
      6  C5       -48.8000  -28.9970    3.0340 C.3   201  4FL201      0.0000
      7  C6       -48.6380  -29.0200    2.9560 C.3   201  4FL201     -0.0309
      8  C6       -49.7290  -29.0720    5.1840 C.3   201  4FL201      0.0000
      9  C1       -52.0200  -29.5530    7.6860 C.ar  201  4FL201      0.0210
     10  C1       -43.8320  -29.7250    5.4760 C.ar  201  4FL201      0.0210
     11  C        -52.7710  -29.6340    6.5760 C.ar  201  4FL201      0.0452
     12  C        -44.2960  -29.9420    6.7460 C.ar  201  4FL201      0.0452
     13  C3       -49.6260  -29.1080    5.1150 C.2   201  4FL201      0.1086
     14  C3       -47.3260  -29.1860    4.8730 C.3   201  4FL201      0.1025
     15  C2       -50.7890  -29.2400    6.0000 C.ar  201  4FL201      0.0933
     16  C2       -45.9420  -29.4070    5.4580 C.ar  201  4FL201      0.0933
     17  N2       -47.4330  -29.0700    3.4810 N.3   201  4FL201     -0.2439
     18  N2       -49.8420  -28.9620    3.8780 N.2   201  4FL201     -0.2955
     19  N        -50.8030  -29.3240    7.3210 N.ar  201  4FL201     -0.3508
     20  N        -44.8580  -29.4320    4.7160 N.ar  201  4FL201     -0.3508
     21  N1       -52.0000  -29.4990    5.5410 N.ar  201  4FL201     -0.2443
     22  N1       -45.5690  -29.7300    6.7250 N.ar  201  4FL201     -0.2443
     23  H1       -48.1830  -29.2630    6.5150 H     201  4FL201      0.0309
     24  H1       -46.7810  -29.1120    2.9330 H     201  4FL201      0.1414
     25  H2       -50.6270  -29.0050    3.3920 H     201  4FL201      0.1869
     26  H2       -48.3040  -29.2800    6.5900 H     201  4FL201      0.0000
     27  H3       -46.3980  -29.1750    5.1270 H     201  4FL201      0.1026
     28  H3       -48.8830  -28.8550    2.1300 H     201  4FL201      0.0309
     29  H4       -48.6790  -28.9040    2.0400 H     201  4FL201      0.0000
     30  H4       -50.4680  -29.0440    5.7480 H     201  4FL201      0.1026
     31  H5       -52.3290  -29.6040    8.5620 H     201  4FL201      0.0822
     32  H5       -42.9450  -29.7780    5.2010 H     201  4FL201      0.0822
     33  H6       -53.6870  -29.7900    6.5520 H     201  4FL201      0.0845
     34  H6       -43.7800  -30.1290    7.4970 H     201  4FL201      0.0845
     35  H7       -50.1280  -29.2210    7.8420 H     201  4FL201      0.1662
     36  H7       -44.8260  -29.2740    3.8710 H     201  4FL201      0.1662
@<TRIPOS>BOND
     1    28     7    1
     2    24    17    1
     3    25    18    1
     4    17    14    1
     5     2     5    3
     6    36    20    1
     7    18    13    2
     8    20    16   ar
     9    20    10   ar
    10    27    16    1
    11    32    10    1
    12    16    22   ar
    13    10    12   ar
    14    21    15   ar
    15    21    11   ar
    16     4    23    1
    17    30    15    1
    18    15    19   ar
    19    33    11    1
    20    11     9   ar
    21    22    12   ar
    22    12    34    1
    23    19     9   ar
    24    19    35    1
    25     9    31    1
