JGG
  -OEChem-02242320033D

 33 34  0     0  0  0  0  0  0999 V2000
   -5.1060    0.3540   -0.4070 C   0  0  0  0  0  0  0  0  0  0  0  0
   -3.4830    2.1150   -0.2570 C   0  0  0  0  0  0  0  0  0  0  0  0
    5.5620    0.9940    0.0680 C   0  0  0  0  0  0  0  0  0  0  0  0
    2.4920   -0.8320    1.0800 C   0  0  0  0  0  0  0  0  0  0  0  0
    3.7190   -0.2050    1.1520 C   0  0  0  0  0  0  0  0  0  0  0  0
    4.2890    0.3410    0.0000 C   0  0  0  0  0  0  0  0  0  0  0  0
    3.6120    0.2480   -1.2180 C   0  0  0  0  0  0  0  0  0  0  0  0
    2.3870   -0.3820   -1.2760 C   0  0  0  0  0  0  0  0  0  0  0  0
    1.8270   -0.9210   -0.1300 C   0  0  0  0  0  0  0  0  0  0  0  0
    0.4910   -1.6130   -0.2030 C   0  0  0  0  0  0  0  0  0  0  0  0
   -0.5770   -0.6390    0.0350 N   0  0  0  0  0  0  0  0  0  0  0  0
   -1.8660   -1.0340    0.0180 C   0  0  0  0  0  0  0  0  0  0  0  0
   -2.1470   -2.1780   -0.2840 O   0  0  0  0  0  0  0  0  0  0  0  0
   -2.8420   -0.1610    0.3340 N   0  0  0  0  0  0  0  0  0  0  0  0
   -4.2450   -0.5960    0.4340 C   0  0  0  0  0  0  0  0  0  0  0  0
   -4.8320    1.7030   -0.0230 O   0  0  0  0  0  0  0  0  0  0  0  0
   -2.5380    1.2560    0.5910 C   0  0  0  0  0  0  0  0  0  0  0  0
    6.5710    1.5120    0.1220 N   0  0  0  0  0  0  0  0  0  0  0  0
   -4.8710    0.2210   -1.4630 H   0  0  0  0  0  0  0  0  0  0  0  0
   -6.1610    0.1340   -0.2380 H   0  0  0  0  0  0  0  0  0  0  0  0
   -3.2410    1.9880   -1.3120 H   0  0  0  0  0  0  0  0  0  0  0  0
   -3.3680    3.1630    0.0200 H   0  0  0  0  0  0  0  0  0  0  0  0
    2.0520   -1.2590    1.9690 H   0  0  0  0  0  0  0  0  0  0  0  0
    4.2360   -0.1360    2.0970 H   0  0  0  0  0  0  0  0  0  0  0  0
    4.0480    0.6680   -2.1120 H   0  0  0  0  0  0  0  0  0  0  0  0
    1.8620   -0.4550   -2.2170 H   0  0  0  0  0  0  0  0  0  0  0  0
    0.3640   -2.0570   -1.1900 H   0  0  0  0  0  0  0  0  0  0  0  0
    0.4450   -2.3950    0.5560 H   0  0  0  0  0  0  0  0  0  0  0  0
   -0.3570    0.2900    0.2040 H   0  0  0  0  0  0  0  0  0  0  0  0
   -4.5670   -0.5600    1.4740 H   0  0  0  0  0  0  0  0  0  0  0  0
   -4.3410   -1.6130    0.0530 H   0  0  0  0  0  0  0  0  0  0  0  0
   -1.5050    1.4650    0.3160 H   0  0  0  0  0  0  0  0  0  0  0  0
   -2.6890    1.4780    1.6480 H   0  0  0  0  0  0  0  0  0  0  0  0
  1 16  1  0  0  0  0
  2 16  1  0  0  0  0
  1 15  1  0  0  0  0
  2 17  1  0  0  0  0
  3 18  3  0  0  0  0
  3  6  1  0  0  0  0
  5  6  2  0  0  0  0
  4  5  1  0  0  0  0
 14 17  1  0  0  0  0
 14 15  1  0  0  0  0
  6  7  1  0  0  0  0
  4  9  2  0  0  0  0
 12 14  1  0  0  0  0
 12 13  2  0  0  0  0
 11 12  1  0  0  0  0
  7  8  2  0  0  0  0
  8  9  1  0  0  0  0
  9 10  1  0  0  0  0
 10 11  1  0  0  0  0
  1 19  1  0  0  0  0
  1 20  1  0  0  0  0
  2 21  1  0  0  0  0
  2 22  1  0  0  0  0
  4 23  1  0  0  0  0
  5 24  1  0  0  0  0
  7 25  1  0  0  0  0
  8 26  1  0  0  0  0
 10 27  1  0  0  0  0
 10 28  1  0  0  0  0
 11 29  1  0  0  0  0
 15 30  1  0  0  0  0
 15 31  1  0  0  0  0
 17 32  1  0  0  0  0
 17 33  1  0  0  0  0
M  END
> <OPENEYE_ISO_SMILES>
c1cc(ccc1CNC(=O)N2CCOCC2)C#N

> <OPENEYE_INCHI>
InChI=1S/C13H15N3O2/c14-9-11-1-3-12(4-2-11)10-15-13(17)16-5-7-18-8-6-16/h1-4H,5-8,10H2,(H,15,17)

> <OPENEYE_INCHIKEY>
ZXWAHHRBFVCEAR-UHFFFAOYSA-N

> <FORMULA>
C13H15N3O2

$$$$
