Q5T
  -OEChem-02242320033D

147148  0     1  0  0  0  0  0999 V2000
  -14.8240   -0.7010   -1.0150 C   0  0  0  0  0  0  0  0  0  0  0  0
  -13.8830   -1.8500   -1.3820 C   0  0  0  0  0  0  0  0  0  0  0  0
  -14.5890   -3.1640   -1.1720 C   0  0  0  0  0  0  0  0  0  0  0  0
  -11.7920    0.1970   -0.6110 C   0  0  0  0  0  0  0  0  0  0  0  0
  -14.5680    5.9220   -1.4760 C   0  0  0  0  0  0  0  0  0  0  0  0
  -15.0860    1.7840   -0.9830 C   0  0  0  0  0  0  0  0  0  0  0  0
  -14.4060    3.1130   -1.3170 C   0  0  0  0  0  0  0  0  0  0  0  0
  -14.1070    0.6340   -1.2290 C   0  0  1  0  0  0  0  0  0  0  0  0
  -15.5670    4.4760   -1.0240 S   0  0  0  0  0  0  0  0  0  0  0  0
  -15.8500    4.5390    0.3670 O   0  0  0  0  0  0  0  0  0  0  0  0
  -16.6410    4.3620   -1.9470 O   0  0  0  0  0  0  0  0  0  0  0  0
  -12.9840    0.7400   -0.2950 N   0  0  0  0  0  0  0  0  0  0  0  0
  -13.9500   -4.3220   -1.4320 N   0  0  0  0  0  0  0  0  0  0  0  0
  -15.7320   -3.1810   -0.7680 O   0  0  0  0  0  0  0  0  0  0  0  0
  -11.6490   -0.3800   -1.6680 O   0  0  0  0  0  0  0  0  0  0  0  0
  -10.6360    0.3060    0.3500 C   0  0  2  0  0  0  0  0  0  0  0  0
  -10.3160    1.7810    0.5980 C   0  0  0  0  0  0  0  0  0  0  0  0
   -9.2270    1.8950    1.6660 C   0  0  0  0  0  0  0  0  0  0  0  0
   -8.8180    3.3610    1.8250 C   0  0  0  0  0  0  0  0  0  0  0  0
   -9.7640    1.3680    2.9990 C   0  0  0  0  0  0  0  0  0  0  0  0
   -9.4620   -0.3600   -0.2200 N   0  0  0  0  0  0  0  0  0  0  0  0
   -8.4980   -0.8380    0.5910 C   0  0  0  0  0  0  0  0  0  0  0  0
   -8.5640   -0.6510    1.7880 O   0  0  0  0  0  0  0  0  0  0  0  0
   -7.3370   -1.6050    0.0120 C   0  0  2  0  0  0  0  0  0  0  0  0
   -7.7000   -3.0890   -0.0750 C   0  0  0  0  0  0  0  0  0  0  0  0
   -6.5170   -3.8700   -0.6530 C   0  0  0  0  0  0  0  0  0  0  0  0
   -8.0250   -3.6180    1.3230 C   0  0  0  0  0  0  0  0  0  0  0  0
   -8.9190   -3.2640   -0.9840 C   0  0  0  0  0  0  0  0  0  0  0  0
   -6.1630   -1.4390    0.8720 N   0  0  0  0  0  0  0  0  0  0  0  0
   -4.9260   -1.5780    0.3570 C   0  0  0  0  0  0  0  0  0  0  0  0
   -4.7840   -1.8410   -0.8180 O   0  0  0  0  0  0  0  0  0  0  0  0
   -3.7180   -1.4070    1.2430 C   0  0  2  0  0  0  0  0  0  0  0  0
   -3.7160    0.0040    1.8350 C   0  0  0  0  0  0  0  0  0  0  0  0
   -2.5610    0.1380    2.8290 C   0  0  0  0  0  0  0  0  0  0  0  0
   -2.5010   -1.6070    0.4520 N   0  0  0  0  0  0  0  0  0  0  0  0
   -1.3620   -2.0020    1.0560 C   0  0  0  0  0  0  0  0  0  0  0  0
   -1.3460   -2.1920    2.2540 O   0  0  0  0  0  0  0  0  0  0  0  0
   -0.1110   -2.2070    0.2430 C   0  0  0  0  0  0  0  0  0  0  0  0
    1.0280   -2.6510    1.1630 C   0  0  0  0  0  0  0  0  0  0  0  0
    2.2150   -2.8460    0.3920 O   0  0  0  0  0  0  0  0  0  0  0  0
    3.3450   -3.2650    1.1610 C   0  0  0  0  0  0  0  0  0  0  0  0
    4.5530   -3.4410    0.2370 C   0  0  0  0  0  0  0  0  0  0  0  0
    4.9190   -2.1750   -0.3150 O   0  0  0  0  0  0  0  0  0  0  0  0
    6.0420   -2.2290   -1.1970 C   0  0  0  0  0  0  0  0  0  0  0  0
    6.3430   -0.8260   -1.7260 C   0  0  0  0  0  0  0  0  0  0  0  0
    6.7520    0.0140   -0.6440 O   0  0  0  0  0  0  0  0  0  0  0  0
    7.0580    1.3550   -1.0330 C   0  0  0  0  0  0  0  0  0  0  0  0
    7.4810    2.1580    0.1990 C   0  0  0  0  0  0  0  0  0  0  0  0
    8.7020    1.6270    0.7180 O   0  0  0  0  0  0  0  0  0  0  0  0
    9.1870    2.3090    1.8760 C   0  0  0  0  0  0  0  0  0  0  0  0
   10.4910    1.6590    2.3430 C   0  0  0  0  0  0  0  0  0  0  0  0
   11.5230    1.8470    1.3210 N   0  0  0  0  0  0  0  0  0  0  0  0
   12.7620    1.3540    1.5160 C   0  0  0  0  0  0  0  0  0  0  0  0
   13.0230    0.7550    2.5380 O   0  0  0  0  0  0  0  0  0  0  0  0
   13.8250    1.5480    0.4650 C   0  0  0  0  0  0  0  0  0  0  0  0
   15.1280    0.8970    0.9320 C   0  0  0  0  0  0  0  0  0  0  0  0
   16.2070    1.0940   -0.1360 C   0  0  0  0  0  0  0  0  0  0  0  0
   17.5110    0.4430    0.3310 C   0  0  0  0  0  0  0  0  0  0  0  0
   18.5890    0.6390   -0.7360 C   0  0  2  0  0  0  0  0  0  0  0  0
   19.9070   -0.0530   -0.3210 C   0  0  2  0  0  0  0  0  0  0  0  0
   21.0590    0.8840   -0.7290 C   0  0  2  0  0  0  0  0  0  0  0  0
   20.5570    2.1600   -1.3500 C   0  0  0  0  0  0  0  0  0  0  0  0
   19.0890    2.3990   -0.8430 S   0  0  2  0  0  0  0  0  0  0  0  0
   20.1090   -1.2480   -1.1530 N   0  0  0  0  0  0  0  0  0  0  0  0
   21.8060    0.1050   -1.7300 N   0  0  0  0  0  0  0  0  0  0  0  0
   21.2010   -1.0760   -1.9110 C   0  0  0  0  0  0  0  0  0  0  0  0
   21.6060   -1.9160   -2.6900 O   0  0  0  0  0  0  0  0  0  0  0  0
  -15.7110   -0.7420   -1.6470 H   0  0  0  0  0  0  0  0  0  0  0  0
  -15.1180   -0.7920    0.0300 H   0  0  0  0  0  0  0  0  0  0  0  0
  -13.5890   -1.7590   -2.4280 H   0  0  0  0  0  0  0  0  0  0  0  0
  -12.9960   -1.8090   -0.7510 H   0  0  0  0  0  0  0  0  0  0  0  0
  -14.2600    5.8390   -2.5180 H   0  0  0  0  0  0  0  0  0  0  0  0
  -15.1600    6.8270   -1.3430 H   0  0  0  0  0  0  0  0  0  0  0  0
  -13.6850    5.9670   -0.8380 H   0  0  0  0  0  0  0  0  0  0  0  0
  -15.3900    1.7840    0.0640 H   0  0  0  0  0  0  0  0  0  0  0  0
  -15.9640    1.6560   -1.6160 H   0  0  0  0  0  0  0  0  0  0  0  0
  -13.5280    3.2410   -0.6840 H   0  0  0  0  0  0  0  0  0  0  0  0
  -14.1020    3.1120   -2.3640 H   0  0  0  0  0  0  0  0  0  0  0  0
  -13.7350    0.6870   -2.2530 H   0  0  0  0  0  0  0  0  0  0  0  0
  -13.0980    1.2010    0.5500 H   0  0  0  0  0  0  0  0  0  0  0  0
  -13.0350   -4.3090   -1.7550 H   0  0  0  0  0  0  0  0  0  0  0  0
  -14.4040   -5.1680   -1.2960 H   0  0  0  0  0  0  0  0  0  0  0  0
  -10.9010   -0.1710    1.2940 H   0  0  0  0  0  0  0  0  0  0  0  0
   -9.9650    2.2370   -0.3280 H   0  0  0  0  0  0  0  0  0  0  0  0
  -11.2140    2.2960    0.9380 H   0  0  0  0  0  0  0  0  0  0  0  0
   -8.3600    1.3070    1.3660 H   0  0  0  0  0  0  0  0  0  0  0  0
   -9.6860    3.9490    2.1250 H   0  0  0  0  0  0  0  0  0  0  0  0
   -8.0430    3.4420    2.5860 H   0  0  0  0  0  0  0  0  0  0  0  0
   -8.4360    3.7360    0.8750 H   0  0  0  0  0  0  0  0  0  0  0  0
   -8.9880    1.4490    3.7600 H   0  0  0  0  0  0  0  0  0  0  0  0
  -10.6300    1.9570    3.3000 H   0  0  0  0  0  0  0  0  0  0  0  0
  -10.0540    0.3240    2.8860 H   0  0  0  0  0  0  0  0  0  0  0  0
   -9.3780   -0.4560   -1.1820 H   0  0  0  0  0  0  0  0  0  0  0  0
   -7.1140   -1.2270   -0.9860 H   0  0  0  0  0  0  0  0  0  0  0  0
   -5.6490   -3.7450   -0.0060 H   0  0  0  0  0  0  0  0  0  0  0  0
   -6.7750   -4.9270   -0.7150 H   0  0  0  0  0  0  0  0  0  0  0  0
   -6.2850   -3.4930   -1.6490 H   0  0  0  0  0  0  0  0  0  0  0  0
   -8.8680   -3.0620    1.7340 H   0  0  0  0  0  0  0  0  0  0  0  0
   -8.2830   -4.6750    1.2610 H   0  0  0  0  0  0  0  0  0  0  0  0
   -7.1570   -3.4930    1.9700 H   0  0  0  0  0  0  0  0  0  0  0  0
   -8.7240   -2.7940   -1.9470 H   0  0  0  0  0  0  0  0  0  0  0  0
   -9.1130   -4.3270   -1.1300 H   0  0  0  0  0  0  0  0  0  0  0  0
   -9.7870   -2.7970   -0.5200 H   0  0  0  0  0  0  0  0  0  0  0  0
   -6.2770   -1.2280    1.8120 H   0  0  0  0  0  0  0  0  0  0  0  0
   -3.7520   -2.1390    2.0490 H   0  0  0  0  0  0  0  0  0  0  0  0
   -3.5920    0.7340    1.0350 H   0  0  0  0  0  0  0  0  0  0  0  0
   -4.6600    0.1840    2.3480 H   0  0  0  0  0  0  0  0  0  0  0  0
   -2.5590    1.1430    3.2510 H   0  0  0  0  0  0  0  0  0  0  0  0
   -2.6840   -0.5920    3.6290 H   0  0  0  0  0  0  0  0  0  0  0  0
   -1.6160   -0.0420    2.3160 H   0  0  0  0  0  0  0  0  0  0  0  0
   -2.5140   -1.4550   -0.5060 H   0  0  0  0  0  0  0  0  0  0  0  0
   -0.2890   -2.9740   -0.5110 H   0  0  0  0  0  0  0  0  0  0  0  0
    0.1620   -1.2730   -0.2470 H   0  0  0  0  0  0  0  0  0  0  0  0
    1.2060   -1.8840    1.9170 H   0  0  0  0  0  0  0  0  0  0  0  0
    0.7560   -3.5860    1.6530 H   0  0  0  0  0  0  0  0  0  0  0  0
    3.5720   -2.5100    1.9140 H   0  0  0  0  0  0  0  0  0  0  0  0
    3.1210   -4.2120    1.6510 H   0  0  0  0  0  0  0  0  0  0  0  0
    5.3900   -3.8450    0.8070 H   0  0  0  0  0  0  0  0  0  0  0  0
    4.2960   -4.1290   -0.5680 H   0  0  0  0  0  0  0  0  0  0  0  0
    6.9100   -2.6080   -0.6570 H   0  0  0  0  0  0  0  0  0  0  0  0
    5.8170   -2.8920   -2.0330 H   0  0  0  0  0  0  0  0  0  0  0  0
    7.1420   -0.8800   -2.4660 H   0  0  0  0  0  0  0  0  0  0  0  0
    5.4470   -0.4120   -2.1890 H   0  0  0  0  0  0  0  0  0  0  0  0
    7.8720    1.3460   -1.7580 H   0  0  0  0  0  0  0  0  0  0  0  0
    6.1770    1.8130   -1.4810 H   0  0  0  0  0  0  0  0  0  0  0  0
    7.6290    3.2010   -0.0810 H   0  0  0  0  0  0  0  0  0  0  0  0
    6.7030    2.0930    0.9600 H   0  0  0  0  0  0  0  0  0  0  0  0
    9.3700    3.3550    1.6310 H   0  0  0  0  0  0  0  0  0  0  0  0
    8.4450    2.2470    2.6720 H   0  0  0  0  0  0  0  0  0  0  0  0
   10.8140    2.1210    3.2750 H   0  0  0  0  0  0  0  0  0  0  0  0
   10.3280    0.5930    2.5030 H   0  0  0  0  0  0  0  0  0  0  0  0
   11.3150    2.3260    0.5030 H   0  0  0  0  0  0  0  0  0  0  0  0
   13.5020    1.0850   -0.4680 H   0  0  0  0  0  0  0  0  0  0  0  0
   13.9880    2.6130    0.3050 H   0  0  0  0  0  0  0  0  0  0  0  0
   15.4520    1.3590    1.8640 H   0  0  0  0  0  0  0  0  0  0  0  0
   14.9660   -0.1690    1.0920 H   0  0  0  0  0  0  0  0  0  0  0  0
   15.8840    0.6310   -1.0680 H   0  0  0  0  0  0  0  0  0  0  0  0
   16.3700    2.1590   -0.2960 H   0  0  0  0  0  0  0  0  0  0  0  0
   17.8340    0.9050    1.2640 H   0  0  0  0  0  0  0  0  0  0  0  0
   17.3480   -0.6230    0.4910 H   0  0  0  0  0  0  0  0  0  0  0  0
   18.2470    0.2740   -1.7040 H   0  0  0  0  0  0  0  0  0  0  0  0
   19.9190   -0.2930    0.7420 H   0  0  0  0  0  0  0  0  0  0  0  0
   21.6930    1.1000    0.1310 H   0  0  0  0  0  0  0  0  0  0  0  0
   21.1060    2.7990   -2.0260 H   0  0  0  0  0  0  0  0  0  0  0  0
   19.5430   -2.0360   -1.1530 H   0  0  0  0  0  0  0  0  0  0  0  0
   22.6090    0.4010   -2.1870 H   0  0  0  0  0  0  0  0  0  0  0  0
   19.2650    2.7370    0.4470 H   0  0  0  0  0  0  0  0  0  0  0  0
 61 62  1  0  0  0  0
 62 63  2  0  0  0  0
 61 65  1  0  0  0  0
 60 61  1  0  0  0  0
 65 66  1  0  0  0  0
 59 63  1  0  0  0  0
 59 60  1  0  0  0  0
 60 64  1  0  0  0  0
 64 66  1  0  0  0  0
 66 67  2  0  0  0  0
 58 59  1  0  0  0  0
 57 58  1  0  0  0  0
 56 57  1  0  0  0  0
 55 56  1  0  0  0  0
 53 55  1  0  0  0  0
 53 54  2  0  0  0  0
 52 53  1  0  0  0  0
 51 52  1  0  0  0  0
 50 51  1  0  0  0  0
 49 50  1  0  0  0  0
 48 49  1  0  0  0  0
 47 48  1  0  0  0  0
 46 47  1  0  0  0  0
 44 45  1  0  0  0  0
 43 44  1  0  0  0  0
 45 46  1  0  0  0  0
 42 43  1  0  0  0  0
 41 42  1  0  0  0  0
 40 41  1  0  0  0  0
 39 40  1  0  0  0  0
 38 39  1  0  0  0  0
 36 38  1  0  0  0  0
 30 31  2  0  0  0  0
 18 20  1  0  0  0  0
 35 36  1  0  0  0  0
 36 37  2  0  0  0  0
 32 35  1  0  0  0  0
 18 19  1  0  0  0  0
 17 18  1  0  0  0  0
 30 32  1  0  0  0  0
 29 30  1  0  0  0  0
 33 34  1  0  0  0  0
 32 33  1  0  0  0  0
 25 28  1  0  0  0  0
 16 17  1  0  0  0  0
 24 29  1  0  0  0  0
 24 25  1  0  0  0  0
 22 24  1  0  0  0  0
 21 22  1  0  0  0  0
 16 21  1  0  0  0  0
 25 26  1  0  0  0  0
 25 27  1  0  0  0  0
 22 23  2  0  0  0  0
  4 16  1  0  0  0  0
  4 15  2  0  0  0  0
  4 12  1  0  0  0  0
  5  9  1  0  0  0  0
  8 12  1  0  0  0  0
  7  9  1  0  0  0  0
  6  7  1  0  0  0  0
  9 10  2  0  0  0  0
  9 11  2  0  0  0  0
  6  8  1  0  0  0  0
  1  8  1  0  0  0  0
  1  2  1  0  0  0  0
  2  3  1  0  0  0  0
  3 13  1  0  0  0  0
  3 14  2  0  0  0  0
  1 68  1  0  0  0  0
  1 69  1  0  0  0  0
  2 70  1  0  0  0  0
  2 71  1  0  0  0  0
  5 72  1  0  0  0  0
  5 73  1  0  0  0  0
  5 74  1  0  0  0  0
  6 75  1  0  0  0  0
  6 76  1  0  0  0  0
  7 77  1  0  0  0  0
  7 78  1  0  0  0  0
  8 79  1  0  0  0  0
 12 80  1  0  0  0  0
 13 81  1  0  0  0  0
 13 82  1  0  0  0  0
 16 83  1  0  0  0  0
 17 84  1  0  0  0  0
 17 85  1  0  0  0  0
 18 86  1  0  0  0  0
 19 87  1  0  0  0  0
 19 88  1  0  0  0  0
 19 89  1  0  0  0  0
 20 90  1  0  0  0  0
 20 91  1  0  0  0  0
 20 92  1  0  0  0  0
 21 93  1  0  0  0  0
 24 94  1  0  0  0  0
 26 95  1  0  0  0  0
 26 96  1  0  0  0  0
 26 97  1  0  0  0  0
 27 98  1  0  0  0  0
 27 99  1  0  0  0  0
 27100  1  0  0  0  0
 28101  1  0  0  0  0
 28102  1  0  0  0  0
 28103  1  0  0  0  0
 29104  1  0  0  0  0
 32105  1  0  0  0  0
 33106  1  0  0  0  0
 33107  1  0  0  0  0
 34108  1  0  0  0  0
 34109  1  0  0  0  0
 34110  1  0  0  0  0
 35111  1  0  0  0  0
 38112  1  0  0  0  0
 38113  1  0  0  0  0
 39114  1  0  0  0  0
 39115  1  0  0  0  0
 41116  1  0  0  0  0
 41117  1  0  0  0  0
 42118  1  0  0  0  0
 42119  1  0  0  0  0
 44120  1  0  0  0  0
 44121  1  0  0  0  0
 45122  1  0  0  0  0
 45123  1  0  0  0  0
 47124  1  0  0  0  0
 47125  1  0  0  0  0
 48126  1  0  0  0  0
 48127  1  0  0  0  0
 50128  1  0  0  0  0
 50129  1  0  0  0  0
 51130  1  0  0  0  0
 51131  1  0  0  0  0
 52132  1  0  0  0  0
 55133  1  0  0  0  0
 55134  1  0  0  0  0
 56135  1  0  0  0  0
 56136  1  0  0  0  0
 57137  1  0  0  0  0
 57138  1  0  0  0  0
 58139  1  0  0  0  0
 58140  1  0  0  0  0
 59141  1  0  0  0  0
 60142  1  0  0  0  0
 61143  1  0  0  0  0
 62144  1  0  0  0  0
 64145  1  0  0  0  0
 65146  1  0  0  0  0
 63147  1  0  0  0  0
M  END
> <OPENEYE_ISO_SMILES>
CC[C@@H](C(=O)N[C@H](C(=O)N[C@@H](CC(C)C)C(=O)N[C@@H](CCC(=O)N)CCS(=O)(=O)C)C(C)(C)C)NC(=O)CCOCCOCCOCCOCCNC(=O)CCCC[C@@H]1[C@@H]2[C@H](C=[S@H]1)NC(=O)N2

> <OPENEYE_INCHI>
InChI=1S/C44H80N8O13S2/c1-8-31(40(56)52-39(44(4,5)6)42(58)49-32(27-29(2)3)41(57)47-30(13-14-35(45)53)16-26-67(7,60)61)48-37(55)15-18-62-20-22-64-24-25-65-23-21-63-19-17-46-36(54)12-10-9-11-34-38-33(28-66-34)50-43(59)51-38/h28-34,38-39,66H,8-27H2,1-7H3,(H2,45,53)(H,46,54)(H,47,57)(H,48,55)(H,49,58)(H,52,56)(H2,50,51,59)/t30-,31-,32-,33-,34+,38-,39+/m0/s1

> <OPENEYE_INCHIKEY>
GNJWOJZWTQAVJG-ZFKAINLFSA-N

> <FORMULA>
C44H80N8O13S2

$$$$
