@<TRIPOS>MOLECULE
/home/pku/3cl/gett_pdb/7BF4/7BF4_mol2/ligand/7BF4_5GP.pdb
 48 21 0 0 0
SMALL
GASTEIGER

@<TRIPOS>ATOM
      1  P         -5.8250   31.4880   13.8940 P.3   201  5GP201      0.3332
      2  P         -5.9320   32.9840   14.6890 P.3   201  5GP201      0.1980
      3  O1P       -7.1860   31.2090   13.3010 O.3   201  5GP201     -0.1392
      4  O1P       -7.3360   32.4520   14.4510 O.3   201  5GP201     -0.0289
      5  O2P       -5.8850   32.0680   15.2870 O.3   201  5GP201     -0.1670
      6  O2P       -4.9970   31.9770   15.3160 O.3   201  5GP201     -0.0310
      7  O3P       -4.8480   30.3200   13.8200 O.3   201  5GP201     -0.1650
      8  O3P       -5.8890   34.3520   15.3830 O.3   201  5GP201      0.0000
      9  O5'       -5.2610   32.6630   12.9290 O.3   201  5GP201     -0.1862
     10  O5'       -5.3870   33.1610   13.1950 O.3   201  5GP201     -0.0346
     11  C5'       -3.8640   32.9320   12.8770 C.3   201  5GP201      0.0000
     12  C5'       -3.9910   33.0650   12.9660 C.3   201  5GP201      0.2208
     13  C4'       -3.5970   33.8550   11.7140 C.3   201  5GP201      0.2175
     14  C4'       -3.6640   33.9090   11.7670 C.3   201  5GP201      0.0000
     15  O4'       -4.0150   33.2040   10.4850 O.3   201  5GP201     -0.2175
     16  O4'       -4.0930   33.1990   10.5780 O.3   201  5GP201     -0.2175
     17  C3'       -4.3260   35.2030   11.7120 C.3   201  5GP201      0.0000
     18  C3'       -4.3530   35.2750   11.6930 C.3   201  5GP201      0.2175
     19  O3'       -3.5150   36.1980   11.0980 O.3   201  5GP201     -0.2175
     20  O3'       -3.4980   36.2430   11.0990 O.3   201  5GP201      0.0000
     21  C2'       -5.5350   34.9490   10.8120 C.3   201  5GP201      0.0000
     22  C2'       -5.5340   35.0270   10.7550 C.3   201  5GP201      0.2175
     23  O2'       -6.0270   36.1240   10.2070 O.3   201  5GP201     -0.2175
     24  O2'       -5.9430   36.2060   10.1000 O.3   201  5GP201      0.0000
     25  C1'       -4.9310   34.0160    9.7810 C.3   201  5GP201      0.0000
     26  C1'       -4.9300   34.0190    9.7940 C.3   201  5GP201      0.2175
     27  N9        -5.8900   33.1340    9.1440 N.3   201  5GP201     -0.1314
     28  N9        -5.8990   33.1520    9.1500 N.3   201  5GP201      0.0000
     29  C8        -6.8590   32.3860    9.7570 C.1   201  5GP201      0.1795
     30  C8        -6.8860   32.4280    9.7620 C.3   201  5GP201      0.0000
     31  N7        -7.4990   31.5970    8.9320 N.3   201  5GP201      0.0000
     32  N7        -7.5480   31.6580    8.9370 N.1   201  5GP201     -0.1795
     33  C5        -6.9000   31.8280    7.6990 C.3   201  5GP201      0.0000
     34  C5        -6.9440   31.8750    7.7040 C.3   201  5GP201      0.0220
     35  C6        -7.1730   31.2680    6.4330 C.2   201  5GP201      0.2794
     36  C6        -7.2390   31.3250    6.4390 C.2   201  5GP201      0.2794
     37  O6        -7.9880   30.3870    6.1420 O.2   201  5GP201     -0.2794
     38  O6        -8.0940   30.4800    6.1510 O.2   201  5GP201     -0.2794
     39  N1        -6.3110   31.7670    5.4660 N.3   201  5GP201      0.0000
     40  N1        -6.3780   31.8140    5.4650 N.3   201  5GP201      0.0000
     41  C2        -5.3520   32.7290    5.6710 C.2   201  5GP201      0.2435
     42  C2        -5.3860   32.7420    5.6700 C.3   201  5GP201      0.0000
     43  N2        -4.6200   33.0830    4.6170 N.3   201  5GP201      0.0000
     44  N2        -4.6490   33.0820    4.6120 N.pl3 201  5GP201     -0.1217
     45  N3        -5.0960   33.2600    6.8580 N.3   201  5GP201     -0.1297
     46  N3        -5.1090   33.2630    6.8580 N.pl3 201  5GP201     -0.1217
     47  C4        -5.9020   32.7640    7.8190 C.3   201  5GP201      0.1297
     48  C4        -5.9240   32.7860    7.8220 C.3   201  5GP201      0.1094
@<TRIPOS>BOND
     1    44    41    1
     2    41    46    2
     3    37    35    2
     4    38    36    2
     5    45    47    1
     6    34    48    1
     7    48    27    1
     8    32    29    3
     9    26    15    1
    10    23    22    1
    11    16    13    1
    12    19    18    1
    13    17    14    1
    14    14    11    1
    15     9    12    1
    16     9    10    1
    17     3     1    1
    18     3     4    1
    19     7     1    1
    20     2     5    1
    21     5     6    1
