APG
  -OEChem-02242320013D

 22 22  0     1  0  0  0  0  0999 V2000
   -1.1150   -0.6150    2.4870 C   0  0  0  0  0  0  0  0  0  0  0  0
   -1.1970   -0.2960    1.1440 C   0  0  0  0  0  0  0  0  0  0  0  0
   -0.1050    0.2480    0.4960 C   0  0  0  0  0  0  0  0  0  0  0  0
    1.0700    0.4690    1.1880 C   0  0  0  0  0  0  0  0  0  0  0  0
    1.1510    0.1540    2.5320 C   0  0  0  0  0  0  0  0  0  0  0  0
    0.0580   -0.3890    3.1810 C   0  0  0  0  0  0  0  0  0  0  0  0
   -0.1940    0.5960   -0.9670 C   0  0  2  0  0  0  0  0  0  0  0  0
   -1.5400    0.9480   -1.2920 O   0  0  0  0  0  0  0  0  0  0  0  0
    0.2260   -0.5920   -1.7920 C   0  0  0  0  0  0  0  0  0  0  0  0
    0.7280    1.7780   -1.2680 C   0  0  0  0  0  0  0  0  0  0  0  0
   -0.5460   -1.0870   -2.5780 O   0  0  0  0  0  0  0  0  0  0  0  0
    1.4600   -1.1010   -1.6550 O   0  0  0  0  0  0  0  0  0  0  0  0
   -1.9680   -1.0410    2.9940 H   0  0  0  0  0  0  0  0  0  0  0  0
   -2.1140   -0.4730    0.6020 H   0  0  0  0  0  0  0  0  0  0  0  0
    1.9240    0.8950    0.6810 H   0  0  0  0  0  0  0  0  0  0  0  0
    2.0680    0.3310    3.0740 H   0  0  0  0  0  0  0  0  0  0  0  0
    0.1220   -0.6380    4.2300 H   0  0  0  0  0  0  0  0  0  0  0  0
   -2.0880    0.1770   -1.0880 H   0  0  0  0  0  0  0  0  0  0  0  0
    1.7550    1.5090   -1.0200 H   0  0  0  0  0  0  0  0  0  0  0  0
    0.6640    2.0300   -2.3260 H   0  0  0  0  0  0  0  0  0  0  0  0
    0.4240    2.6380   -0.6710 H   0  0  0  0  0  0  0  0  0  0  0  0
    1.7310   -1.8640   -2.1840 H   0  0  0  0  0  0  0  0  0  0  0  0
  1  2  2  0  0  0  0
  1  6  1  0  0  0  0
  1 13  1  0  0  0  0
  2  3  1  0  0  0  0
  2 14  1  0  0  0  0
  3  4  2  0  0  0  0
  3  7  1  0  0  0  0
  4  5  1  0  0  0  0
  4 15  1  0  0  0  0
  5  6  2  0  0  0  0
  5 16  1  0  0  0  0
  6 17  1  0  0  0  0
  7  8  1  0  0  0  0
  7  9  1  0  0  0  0
  7 10  1  0  0  0  0
  8 18  1  0  0  0  0
  9 11  2  0  0  0  0
  9 12  1  0  0  0  0
 10 19  1  0  0  0  0
 10 20  1  0  0  0  0
 10 21  1  0  0  0  0
 12 22  1  0  0  0  0
M  END
> <OPENEYE_ISO_SMILES>
C[C@](c1ccccc1)(C(=O)O)O

> <OPENEYE_INCHI>
InChI=1S/C9H10O3/c1-9(12,8(10)11)7-5-3-2-4-6-7/h2-6,12H,1H3,(H,10,11)/t9-/m0/s1

> <OPENEYE_INCHIKEY>
NWCHELUCVWSRRS-VIFPVBQESA-N

> <FORMULA>
C9H10O3

$$$$
