@<TRIPOS>MOLECULE
/home/pku/3cl/gett_pdb/7MAX/7MAX_mol2/ligand/7MAX_YV7.pdb
 75 77 0 0 0
SMALL
GASTEIGER

@<TRIPOS>ATOM
      1  C10       -3.7890  -12.1130   -4.8500 C.2   401  YV7401      0.2162
      2  C13       -5.2930  -16.9220   -4.5210 C.3   401  YV7401     -0.0075
      3  C15       -6.4390  -18.9390   -5.5670 C.2   401  YV7401      0.3074
      4  C20       -8.5990  -19.5750   -6.3100 C.3   401  YV7401      0.0896
      5  C21       -8.2580  -19.2540   -7.7640 C.3   401  YV7401     -0.0306
      6  C22       -5.5880  -11.6300   -6.3570 C.3   401  YV7401      0.0123
      7  C24      -10.0940  -15.7430    3.3830 C.ar  401  YV7401      0.1234
      8  C26       -8.1100  -16.2290    1.7260 C.ar  401  YV7401     -0.0558
      9  C28      -10.4620  -15.4140    0.7960 C.ar  401  YV7401     -0.0558
     10  C01       -8.1320  -12.1040   -1.1480 C.2   401  YV7401      0.2308
     11  C04       -7.8070  -14.5670   -1.1810 C.3   401  YV7401      0.1033
     12  C05       -8.4800  -15.8820   -0.8530 C.3   401  YV7401     -0.0007
     13  C07       -5.6420  -15.4440   -4.3290 C.3   401  YV7401      0.0275
     14  C08       -4.4900  -14.4920   -4.6300 C.3   401  YV7401     -0.0231
     15  C09       -5.0160  -13.0340   -4.5770 C.3   401  YV7401      0.0386
     16  C14       -6.5700  -17.7630   -4.5970 C.3   401  YV7401      0.0498
     17  C18       -7.3490  -14.7520   -2.6300 C.2   401  YV7401      0.2339
     18  C23       -5.9050  -12.8700   -5.8030 C.3   401  YV7401     -0.0262
     19  C25       -8.6590  -16.1890    3.1450 C.ar  401  YV7401     -0.0262
     20  C27       -9.0160  -15.8390    0.5630 C.ar  401  YV7401     -0.0450
     21  C29      -11.0060  -15.3590    2.2130 C.ar  401  YV7401     -0.0262
     22  C31       -9.0560  -10.8890   -1.2080 C.3   401  YV7401      0.0863
     23  C33       -9.9900  -10.8310   -0.0100 C.3   401  YV7401     -0.0039
     24  C34       -7.7020  -10.3650    3.9200 C.ar  401  YV7401     -0.0617
     25  C35       -8.2410  -11.7310    3.5040 C.ar  401  YV7401     -0.0615
     26  C36       -9.0040  -11.8830    2.1900 C.ar  401  YV7401     -0.0585
     27  C37       -9.2200  -10.6690    1.2930 C.ar  401  YV7401     -0.0454
     28  C38       -8.6860   -9.3000    1.7090 C.ar  401  YV7401     -0.0585
     29  C39       -7.9220   -9.1480    3.0230 C.ar  401  YV7401     -0.0615
     30  F30      -10.5920  -15.7320    4.6480 F     401  YV7401     -0.2055
     31  N02       -8.6960  -13.4410   -1.2110 N.am  401  YV7401     -0.3024
     32  N06       -6.0370  -15.2590   -2.9390 N.am  401  YV7401     -0.3106
     33  N11       -4.1160  -11.2910   -5.9170 N.am  401  YV7401     -0.3151
     34  N32       -8.2450   -9.6830   -1.2900 N.3   401  YV7401     -0.3197
     35  O03       -6.9560  -11.9610   -1.0630 O.2   401  YV7401     -0.2741
     36  O12       -2.7500  -12.1160   -4.2730 O.2   401  YV7401     -0.2755
     37  O16       -7.4370  -19.9220   -5.6060 O.3   401  YV7401     -0.4649
     38  O17       -5.4930  -19.0280   -6.2750 O.2   401  YV7401     -0.2508
     39  O19       -8.1220  -14.5010   -3.5010 O.2   401  YV7401     -0.2738
     40 H131       -4.7960  -17.0180   -5.3250 H     401  YV7401      0.0327
     41 H201       -9.2040  -20.2920   -6.2840 H     401  YV7401      0.0694
     42 H202       -8.9920  -18.8220   -5.9090 H     401  YV7401      0.0694
     43 H213       -7.6100  -19.8580   -8.0730 H     401  YV7401      0.0262
     44 H212       -7.9250  -18.3780   -7.8230 H     401  YV7401      0.0262
     45 H211       -9.0320  -19.3310   -8.2910 H     401  YV7401      0.0262
     46 H222       -5.6380  -11.6770   -7.2930 H     401  YV7401      0.0462
     47 H221       -6.1770  -10.9750   -6.0320 H     401  YV7401      0.0462
     48 H261       -7.2330  -16.4920    1.5700 H     401  YV7401      0.0621
     49 H281      -11.0000  -15.1730    0.0780 H     401  YV7401      0.0621
     50 H041       -7.0750  -14.4090   -0.6140 H     401  YV7401      0.0598
     51 H052       -7.8570  -16.5800   -0.9300 H     401  YV7401      0.0336
     52 H051       -9.1890  -16.0280   -1.4510 H     401  YV7401      0.0336
     53 H071       -6.3670  -15.2360   -4.8860 H     401  YV7401      0.0501
     54 H081       -3.8170  -14.6040   -3.9850 H     401  YV7401      0.0290
     55 H082       -4.1390  -14.6770   -5.4810 H     401  YV7401      0.0290
     56 H091       -5.4580  -12.8260   -3.7750 H     401  YV7401      0.0395
     57 H142       -6.7630  -18.0970   -3.7410 H     401  YV7401      0.0381
     58 H141       -7.2820  -17.2190   -4.8770 H     401  YV7401      0.0381
     59 H231       -5.7270  -13.5490   -6.4230 H     401  YV7401      0.0288
     60 H232       -6.8090  -12.8870   -5.5490 H     401  YV7401      0.0288
     61 H251       -8.1170  -16.4230    3.8620 H     401  YV7401      0.0646
     62 H291      -11.8860  -15.1040    2.3680 H     401  YV7401      0.0646
     63 H311       -9.5770  -10.9500   -1.9870 H     401  YV7401      0.0557
     64 H332      -10.4910  -11.6240    0.0270 H     401  YV7401      0.0333
     65 H331      -10.5750  -10.1040   -0.1130 H     401  YV7401      0.0333
     66 H341       -7.2370  -10.2740    4.7190 H     401  YV7401      0.0618
     67 H351       -8.1050  -12.4700    4.0500 H     401  YV7401      0.0618
     68 H361       -9.3330  -12.7140    1.9360 H     401  YV7401      0.0620
     69 H381       -8.8220   -8.5620    1.1620 H     401  YV7401      0.0620
     70 H391       -7.5930   -8.3170    3.2770 H     401  YV7401      0.0618
     71 H021       -9.5530  -13.5560   -1.2850 H     401  YV7401      0.1495
     72 H061       -5.4830  -15.4510   -2.2990 H     401  YV7401      0.1490
     73 H111       -3.6030  -10.6810   -6.2600 H     401  YV7401      0.1487
     74 H322       -8.2440   -9.3900   -2.1070 H     401  YV7401      0.1189
     75  H2        -7.4320   -9.8640   -1.0460 H     401  YV7401      0.1189
@<TRIPOS>BOND
     1    45     5    1
     2    43     5    1
     3    44     5    1
     4     5     4    1
     5    46     6    1
     6    59    18    1
     7     6    47    1
     8     6    33    1
     9     6    18    1
    10     4    41    1
    11     4    42    1
    12     4    37    1
    13    38     3    2
    14    73    33    1
    15    33     1   am
    16    18    60    1
    17    18    15    1
    18    37     3    1
    19     3    16    1
    20    55    14    1
    21    40     2    1
    22    53    13    1
    23    58    16    1
    24     1    15    1
    25     1    36    2
    26    14    15    1
    27    14    13    1
    28    14    54    1
    29    16     2    1
    30    16    57    1
    31    15    56    1
    32     2    13    1
    33    13    32    1
    34    39    17    2
    35    32    17   am
    36    32    72    1
    37    17    11    1
    38    74    34    1
    39    63    22    1
    40    52    12    1
    41    34    22    1
    42    34    75    1
    43    71    31    1
    44    31    11    1
    45    31    10   am
    46    22    10    1
    47    22    23    1
    48    11    12    1
    49    11    50    1
    50    10    35    2
    51    51    12    1
    52    12    20    1
    53    65    23    1
    54    23    64    1
    55    23    27    1
    56    49     9    1
    57    20     9   ar
    58    20     8   ar
    59     9    21   ar
    60    69    28    1
    61    27    28   ar
    62    27    26   ar
    63    48     8    1
    64    28    29   ar
    65     8    19   ar
    66    68    26    1
    67    26    25   ar
    68    21    62    1
    69    21     7   ar
    70    29    70    1
    71    29    24   ar
    72    19     7   ar
    73    19    61    1
    74     7    30    1
    75    25    24   ar
    76    25    67    1
    77    24    66    1
