@<TRIPOS>MOLECULE
/home/pku/3cl/gett_pdb/7L13/7L13_mol2/ligand/7L13_XF7.pdb
 37 41 0 0 0
SMALL
GASTEIGER

@<TRIPOS>ATOM
      1  C1       -20.3590   -4.4580  -27.8560 C.ar  401  XF7401      0.2647
      2  C2       -22.6710   -4.2470  -27.2620 C.ar  401  XF7401      0.0028
      3  C3       -21.6930   -4.2450  -28.2640 C.ar  401  XF7401      0.0564
      4  C4       -22.0450   -3.9960  -29.7240 C.ar  401  XF7401      0.0084
      5  C5       -22.8410   -2.8910  -30.0410 C.ar  401  XF7401      0.0117
      6  C6       -18.6860   -4.8910  -26.0890 C.ar  401  XF7401      0.0860
      7  C7       -23.1640   -2.6330  -31.3840 C.ar  401  XF7401      0.0607
      8  C8       -22.6880   -3.4750  -32.4040 C.ar  401  XF7401      0.0483
      9  C9       -21.8690   -4.5660  -32.0920 C.ar  401  XF7401      0.1399
     10  C10      -20.1550   -6.0530  -32.9870 C.3   401  XF7401      0.2328
     11  C11      -19.8440   -6.7150  -34.3320 C.ar  401  XF7401      0.0317
     12  C12      -21.5490   -4.8250  -30.7470 C.ar  401  XF7401      0.0371
     13  C13      -17.8170   -3.7950  -26.0320 C.ar  401  XF7401      0.1164
     14  C14      -16.0860   -5.2740  -25.2580 C.ar  401  XF7401      0.0990
     15  C15      -16.9670   -6.3620  -25.3160 C.ar  401  XF7401      0.0222
     16  C16      -18.2900   -6.1800  -25.7250 C.ar  401  XF7401      0.0208
     17  C17      -21.0430   -4.6830  -25.5410 C.ar  401  XF7401      0.0795
     18  C18      -22.3580   -4.4500  -25.9130 C.ar  401  XF7401      0.0094
     19  C24      -23.4760   -4.4770  -24.8700 C.3   401  XF7401      0.1410
     20  C26      -23.3590   -3.9830  -23.5460 C.2   401  XF7401      0.2584
     21  C25      -24.6800   -5.0660  -25.2970 C.2   401  XF7401      0.0772
     22  C30      -25.6560   -4.6740  -23.1410 C.2   401  XF7401      0.3499
     23  C32      -20.1580   -8.0530  -34.5840 C.ar  401  XF7401      0.0002
     24  C33      -19.8670   -8.6070  -35.8450 C.ar  401  XF7401     -0.0002
     25  C34      -19.2690   -7.8330  -36.8540 C.ar  401  XF7401      0.0008
     26  C35      -18.9620   -6.4890  -36.6040 C.ar  401  XF7401      0.0112
     27  C36      -19.2590   -5.9440  -35.3450 C.ar  401  XF7401      0.0572
     28  N19      -20.0470   -4.6720  -26.5120 N.ar  401  XF7401     -0.2719
     29  N20      -16.5000   -3.9830  -25.6050 N.ar  401  XF7401     -0.2408
     30  N28      -24.4590   -4.0910  -22.6850 N.am  401  XF7401     -0.1254
     31  N29      -25.7670   -5.1640  -24.4450 N.am  401  XF7401     -0.1632
     32  O21      -19.3290   -4.4660  -28.7910 O.2   401  XF7401     -0.2666
     33  O22      -21.3830   -5.3800  -33.1350 O.3   401  XF7401     -0.4706
     34  O27      -22.1780   -3.3980  -23.0670 O.2   401  XF7401     -0.2721
     35  O31      -26.7630   -4.7880  -22.3060 O.2   401  XF7401     -0.2484
     36 CL23      -24.2090   -1.2450  -31.8100 Cl    401  XF7401     -0.0821
     37 CL24      -18.8810   -4.2410  -34.9730 Cl    401  XF7401     -0.0825
@<TRIPOS>BOND
     1    25    26   ar
     2    25    24   ar
     3    26    27   ar
     4    24    23   ar
     5    27    37    1
     6    27    11   ar
     7    23    11   ar
     8    11    10    1
     9    33    10    1
    10    33     9    1
    11     8     9   ar
    12     8     7   ar
    13     9    12   ar
    14    36     7    1
    15     7     5   ar
    16    12     4   ar
    17     5     4   ar
    18     4     3    1
    19    32     1    2
    20     3     1   ar
    21     3     2   ar
    22     1    28   ar
    23     2    18   ar
    24    28     6    1
    25    28    17   ar
    26     6    13   ar
    27     6    16   ar
    28    13    29   ar
    29    18    17   ar
    30    18    19    1
    31    16    15   ar
    32    29    14   ar
    33    15    14   ar
    34    21    19    1
    35    21    31    2
    36    19    20    1
    37    31    22    1
    38    20    34    2
    39    20    30   am
    40    22    30   am
    41    22    35    2
