@<TRIPOS>MOLECULE
/home/pku/3cl/gett_pdb/5SSG/5SSG_mol2/ligand/5SSG_RPU.pdb
 43 45 0 0 0
SMALL
GASTEIGER

@<TRIPOS>ATOM
      1  C16      -43.0550  -32.2620    2.4060 C.2   201  RPU201      0.0438
      2  C15      -42.7780  -31.6380    1.0410 C.3   201  RPU201      0.0094
      3  C14      -45.1220  -29.6810    0.6940 C.ar  201  RPU201     -0.0531
      4  C13      -46.1400  -28.9740    1.3090 C.ar  201  RPU201     -0.0158
      5  C11      -48.7740  -30.3270    3.4090 C.3   201  RPU201      0.2332
      6  C20      -46.2920  -35.5990   -1.6730 C.3   201  RPU201      0.0163
      7  C01      -43.9290  -35.8720   -2.4960 C.3   201  RPU201     -0.0537
      8  C02      -44.8250  -35.2960   -1.4060 C.3   201  RPU201      0.0396
      9  C03      -44.6170  -33.7910   -1.3370 C.2   201  RPU201      0.2167
     10  C05      -43.9590  -31.8120    0.0940 C.3   201  RPU201      0.0535
     11  C06      -45.1040  -31.0670    0.7590 C.ar  201  RPU201     -0.0232
     12  C07      -46.0840  -31.7570    1.4470 C.ar  201  RPU201     -0.0112
     13  C08      -47.1140  -31.0430    2.0700 C.ar  201  RPU201      0.1665
     14  C09      -47.1400  -29.6700    2.0010 C.ar  201  RPU201      0.1662
     15  C21      -47.0950  -35.3690   -0.3960 C.ar  201  RPU201      0.1056
     16  C22      -47.7780  -34.2050   -0.0490 C.ar  201  RPU201     -0.0207
     17  C23      -48.3720  -34.4960    1.2220 C.ar  201  RPU201     -0.0237
     18  C24      -48.0060  -35.8120    1.5050 C.ar  201  RPU201      0.0921
     19  N04      -44.2050  -33.2310   -0.0660 N.am  201  RPU201     -0.3079
     20  O10      -48.2760  -29.2150    2.7060 O.3   201  RPU201     -0.4526
     21  O12      -48.2320  -31.4800    2.8160 O.3   201  RPU201     -0.4526
     22  O17      -42.8610  -31.5770    3.4470 O.co2 201  RPU201     -0.5497
     23  O18      -43.4920  -33.4400    2.4860 O.co2 201  RPU201     -0.5497
     24  O19      -44.7900  -33.1160   -2.2940 O.2   201  RPU201     -0.2755
     25  O25      -47.2660  -36.2670    0.5340 O.2   201  RPU201     -0.4678
     26 H152      -42.6060  -30.5850    1.2080 H     201  RPU201      0.0346
     27 H151      -41.9000  -32.0750    0.5890 H     201  RPU201      0.0346
     28 H141      -44.3360  -29.1530    0.1570 H     201  RPU201      0.0622
     29 H131      -46.1600  -27.8920    1.2530 H     201  RPU201      0.0655
     30 H112      -49.8540  -30.3550    3.3190 H     201  RPU201      0.1166
     31 H111      -48.4570  -30.2720    4.4420 H     201  RPU201      0.1166
     32 H202      -46.3890  -36.6400   -1.9640 H     201  RPU201      0.0351
     33 H201      -46.6700  -34.9630   -2.4710 H     201  RPU201      0.0351
     34 H012      -43.6970  -36.9040   -2.2550 H     201  RPU201      0.0237
     35 H013      -43.0090  -35.2960   -2.5460 H     201  RPU201      0.0237
     36 H011      -44.4410  -35.8240   -3.4490 H     201  RPU201      0.0237
     37 H021      -44.5480  -35.7210   -0.4540 H     201  RPU201      0.0396
     38 H051      -43.7240  -31.3640   -0.8590 H     201  RPU201      0.0552
     39 H071      -46.0560  -32.8380    1.4990 H     201  RPU201      0.0659
     40 H221      -47.8340  -33.2840   -0.6110 H     201  RPU201      0.0652
     41 H231      -48.9870  -33.8440    1.8260 H     201  RPU201      0.0649
     42 H241      -48.2940  -36.3700    2.3880 H     201  RPU201      0.1029
     43 H041      -44.0750  -33.8490    0.7120 H     201  RPU201      0.1493
@<TRIPOS>UNITY_ATOM_ATTR
22 1
charge -1
@<TRIPOS>BOND
     1    36     7    1
     2    35     7    1
     3     7    34    1
     4     7     8    1
     5    33     6    1
     6    24     9    2
     7    32     6    1
     8     6     8    1
     9     6    15    1
    10     8     9    1
    11     8    37    1
    12     9    19   am
    13    38    10    1
    14    40    16    1
    15    15    16   ar
    16    15    25   ar
    17    19    10    1
    18    19    43    1
    19    16    17   ar
    20    10    11    1
    21    10     2    1
    22    28     3    1
    23    25    18   ar
    24    27     2    1
    25     3    11   ar
    26     3     4   ar
    27    11    12   ar
    28     2    26    1
    29     2     1    1
    30    17    18   ar
    31    17    41    1
    32    29     4    1
    33     4    14   ar
    34    12    39    1
    35    12    13   ar
    36    18    42    1
    37    14    13   ar
    38    14    20    1
    39    13    21    1
    40     1    23   ar
    41     1    22   ar
    42    20     5    1
    43    21     5    1
    44    30     5    1
    45     5    31    1
