@<TRIPOS>MOLECULE
/home/pku/3cl/gett_pdb/5RL0/5RL0_mol2/ligand/5RL0_VEG.pdb
 32 33 0 0 0
SMALL
GASTEIGER

@<TRIPOS>ATOM
      1  N1         7.5770   -1.4230   21.6610 N.am  1001  VEG1001    -0.2480
      2  C4         8.9170    2.7200   23.4350 C.3   1001  VEG1001     0.1269
      3  C5         8.2370    1.0190   21.8060 C.2   1001  VEG1001     0.2642
      4  C6         7.1600   -0.0140   21.4370 C.3   1001  VEG1001     0.1817
      5  C7         6.7840   -2.4230   21.1710 C.2   1001  VEG1001     0.2299
      6  C8         7.3100   -3.2370   20.0060 C.3   1001  VEG1001     0.0857
      7  C10        8.8160   -1.6890   22.3460 C.ar  1001  VEG1001     0.0545
      8  C13       11.2630   -1.8480   23.7230 C.ar  1001  VEG1001    -0.0227
      9  C15        8.8420   -1.8310   23.7360 C.ar  1001  VEG1001     0.0146
     10  C17       12.7330   -0.5020   25.2350 C.3   1001  VEG1001     0.0044
     11  C20        6.5090    0.2950   20.0950 C.ar  1001  VEG1001     0.0241
     12  C21        7.1230   -0.0090   18.8860 C.ar  1001  VEG1001     0.0967
     13  C22        5.5230    1.0700   17.6650 C.ar  1001  VEG1001     0.0989
     14  C24        5.3280    1.0210   20.0300 C.ar  1001  VEG1001     0.0010
     15  O3         5.6130   -2.5230   21.5010 O.2   1001  VEG1001    -0.2745
     16  C9         8.0290   -4.4950   20.4140 C.3   1001  VEG1001     0.0101
     17  C14       10.0520   -1.9070   24.4090 C.ar  1001  VEG1001    -0.0030
     18  C16       12.5910   -1.8300   24.4930 C.3   1001  VEG1001     0.0189
     19  C19       12.6560   -2.9700   25.5210 C.3   1001  VEG1001     0.0044
     20  C18       13.7880   -1.9790   23.5560 C.3   1001  VEG1001     0.0044
     21  C12       11.2230   -1.7430   22.3340 C.ar  1001  VEG1001    -0.0030
     22  C11       10.0210   -1.6720   21.6510 C.ar  1001  VEG1001     0.0146
     23  N2         6.6580    0.3640   17.6880 N.ar  1001  VEG1001    -0.2426
     24  C23        4.8240    1.4200   18.8060 C.ar  1001  VEG1001     0.0204
     25  O2         9.1050    1.3360   20.9950 O.2   1001  VEG1001    -0.2712
     26  N          8.1340    1.5650   23.0180 N.am  1001  VEG1001    -0.2031
     27  C3        10.3090    2.3450   23.9020 C.3   1001  VEG1001     0.1329
     28  C2        11.3350    2.7930   22.9060 C.2   1001  VEG1001     0.3188
     29  O1        11.2890    2.5460   21.7290 O.2   1001  VEG1001    -0.2500
     30  O         12.2960    3.5230   23.4740 O.3   1001  VEG1001    -0.4485
     31  C1        13.3840    3.9540   22.6010 C.3   1001  VEG1001     0.2086
     32  C         13.4180    5.4000   22.5710 C.3   1001  VEG1001     0.0513
@<TRIPOS>BOND
     1    13    23   ar
     2    13    24   ar
     3    23    12   ar
     4    24    14   ar
     5    12    11   ar
     6     6    16    1
     7     6     5    1
     8    14    11   ar
     9    11     4    1
    10    25     3    2
    11     5    15    2
    12     5     1   am
    13     4     1    1
    14     4     3    1
    15    22    21   ar
    16    22     7   ar
    17     1     7    1
    18    29    28    2
    19     3    26   am
    20    21     8   ar
    21     7     9   ar
    22    32    31    1
    23    31    30    1
    24    28    30    1
    25    28    27    1
    26    26     2    1
    27     2    27    1
    28    20    18    1
    29     8    17   ar
    30     8    18    1
    31     9    17   ar
    32    18    10    1
    33    18    19    1
