@<TRIPOS>MOLECULE
/home/pku/3cl/gett_pdb/7TFR/7TFR_mol2/ligand/7TFR_NB2.pdb
 46 49 0 0 0
SMALL
GASTEIGER

@<TRIPOS>ATOM
      1  C1       -13.4340  -38.6860  -16.3220 C.3   401  NB2401      0.1386
      2  C10       -9.0220  -40.9060  -19.2640 C.3   401  NB2401      0.0939
      3  C11       -8.2080  -39.6750  -18.9520 C.3   401  NB2401      0.0220
      4  C12       -8.6990  -39.0970  -17.6410 C.3   401  NB2401      0.0289
      5  C13      -10.4700  -42.2710  -17.6650 C.2   401  NB2401      0.2459
      6  C14      -10.4660  -43.5350  -18.5440 C.3   401  NB2401      0.1727
      7  C17      -11.8290  -43.9290  -19.2300 C.3   401  NB2401      0.0270
      8  C18       -8.4690  -45.0500  -18.0480 C.2   401  NB2401      0.3396
      9  C2       -13.4260  -37.2660  -15.7700 C.2   401  NB2401      0.1171
     10  C21       -7.2830  -39.6560  -17.7530 C.3   401  NB2401      0.0037
     11  C22       -6.1780  -38.6090  -17.8240 C.3   401  NB2401      0.0001
     12  C23       -6.8430  -40.9310  -17.0580 C.3   401  NB2401      0.0001
     13  C24       -6.5720  -46.3700  -16.9940 C.3   401  NB2401      0.1021
     14  C25       -5.6590  -45.1310  -16.7330 C.3   401  NB2401      0.0218
     15  C26       -5.8350  -44.5170  -15.3440 C.3   401  NB2401      0.0018
     16  C27       -5.5630  -45.5710  -14.2680 C.3   401  NB2401      0.0001
     17  C28       -6.5040  -46.7680  -14.4370 C.3   401  NB2401      0.0018
     18  C29       -6.4100  -47.3890  -15.8360 C.3   401  NB2401      0.0218
     19  C30       -6.1620  -46.9330  -18.3750 C.3   401  NB2401      0.1705
     20  C32       -6.7500  -48.4540  -20.8330 C.3   401  NB2401      0.1108
     21  C33       -5.2510  -48.2910  -21.0770 C.3   401  NB2401      0.0236
     22  C34       -7.5720  -47.3670  -21.5310 C.3   401  NB2401      0.0236
     23  C35       -7.2300  -49.8520  -21.2410 C.3   401  NB2401      0.0236
     24  C38      -15.4500  -41.1640  -17.2540 C.3   401  NB2401      0.0326
     25  C39      -16.1930  -42.4970  -17.0520 C.3   401  NB2401      0.1156
     26  C4       -14.3490  -39.6290  -15.5040 C.3   401  NB2401      0.0371
     27  C41      -15.0900  -42.0210  -15.0180 C.2   401  NB2401      0.2410
     28  C43      -12.8390  -44.4190  -18.1700 C.3   401  NB2401      0.0022
     29  C44      -12.4040  -42.6650  -19.9020 C.3   401  NB2401      0.0022
     30  C45      -11.6530  -45.0420  -20.2790 C.3   401  NB2401      0.0022
     31  C5       -14.4830  -41.0560  -16.0510 C.3   401  NB2401      0.0821
     32  C6       -11.1720  -39.2870  -17.2960 C.2   401  NB2401      0.2597
     33  C8        -9.8260  -40.0010  -17.1170 C.3   401  NB2401      0.1535
     34  N16       -9.7870  -44.7270  -17.9120 N.am  401  NB2401     -0.1796
     35  N20       -7.9380  -45.8250  -17.0740 N.am  401  NB2401     -0.1889
     36  N3       -12.0950  -39.2910  -16.3020 N.am  401  NB2401     -0.1996
     37  N40      -16.1380  -42.6480  -15.5990 N.am  401  NB2401     -0.2054
     38  N46      -14.1940  -36.3990  -16.3050 N.2   401  NB2401     -0.1496
     39  N9        -9.7800  -41.1720  -18.0090 N.am  401  NB2401     -0.2716
     40  O15      -11.1200  -42.3140  -16.6000 O.2   401  NB2401     -0.2730
     41  O19       -7.8340  -44.5360  -18.9860 O.2   401  NB2401     -0.2492
     42  O36       -6.4800  -49.6060  -18.3770 O.2   401  NB2401     -0.1730
     43  O37       -8.5310  -48.1520  -18.8080 O.2   401  NB2401     -0.1730
     44  O42      -14.9270  -41.9260  -13.7980 O.2   401  NB2401     -0.2734
     45  O7       -11.4490  -38.7560  -18.3730 O.2   401  NB2401     -0.2715
     46  S31       -7.0710  -48.3820  -18.9880 S.O2  401  NB2401     -0.0115
@<TRIPOS>BOND
     1    22    20    1
     2    23    20    1
     3    21    20    1
     4    20    46    1
     5    30     7    1
     6    29     7    1
     7     2     3    1
     8     2    39    1
     9     7     6    1
    10     7    28    1
    11    46    43    2
    12    46    42    2
    13    46    19    1
    14    41     8    2
    15     3    10    1
    16     3     4    1
    17     6    34    1
    18     6     5    1
    19    19    13    1
    20    45    32    2
    21     8    34   am
    22     8    35   am
    23    39     5   am
    24    39    33    1
    25    11    10    1
    26    10     4    1
    27    10    12    1
    28     5    40    2
    29     4    33    1
    30    32    33    1
    31    32    36   am
    32    24    25    1
    33    24    31    1
    34    35    13    1
    35    25    37    1
    36    13    14    1
    37    13    18    1
    38    14    15    1
    39     1    36    1
    40     1     9    1
    41     1    26    1
    42    38     9    2
    43    31    26    1
    44    31    27    1
    45    18    17    1
    46    37    27   am
    47    15    16    1
    48    27    44    2
    49    17    16    1
