2D0
  -OEChem-02242320003D

 16 17  0     0  0  0  0  0  0999 V2000
   -0.1440   -0.0970    0.0020 C   0  0  0  0  0  0  0  0  0  0  0  0
    0.4990    1.1440    0.0010 C   0  0  0  0  0  0  0  0  0  0  0  0
   -1.5550   -0.1220    0.0010 C   0  0  0  0  0  0  0  0  0  0  0  0
   -0.2430    2.3220   -0.0010 C   0  0  0  0  0  0  0  0  0  0  0  0
   -2.2710    1.0500   -0.0010 C   0  0  0  0  0  0  0  0  0  0  0  0
   -1.6200    2.2750   -0.0020 C   0  0  0  0  0  0  0  0  0  0  0  0
    0.7180   -1.1340   -0.0020 N   0  0  0  0  0  0  0  0  0  0  0  0
    1.9790   -0.8690    0.0000 C   0  0  0  0  0  0  0  0  0  0  0  0
    2.2390    0.8700    0.0020 S   0  0  0  0  0  0  0  0  0  0  0  0
    2.9840   -1.8160   -0.0030 N   0  0  0  0  0  0  0  0  0  0  0  0
   -2.3910   -1.6430    0.0010 Cl  0  0  0  0  0  0  0  0  0  0  0  0
    0.2620    3.2770   -0.0020 H   0  0  0  0  0  0  0  0  0  0  0  0
   -3.3510    1.0180   -0.0020 H   0  0  0  0  0  0  0  0  0  0  0  0
   -2.1920    3.1910   -0.0040 H   0  0  0  0  0  0  0  0  0  0  0  0
    2.7600   -2.7600   -0.0070 H   0  0  0  0  0  0  0  0  0  0  0  0
    3.9130   -1.5380   -0.0010 H   0  0  0  0  0  0  0  0  0  0  0  0
  8 10  1  0  0  0  0
  8  9  1  0  0  0  0
  2  9  1  0  0  0  0
  7  8  2  0  0  0  0
  1  7  1  0  0  0  0
  2  4  2  0  0  0  0
  1  2  1  0  0  0  0
  4  6  1  0  0  0  0
  1  3  2  0  0  0  0
  3  5  1  0  0  0  0
  3 11  1  0  0  0  0
  5  6  2  0  0  0  0
  4 12  1  0  0  0  0
  5 13  1  0  0  0  0
  6 14  1  0  0  0  0
 10 15  1  0  0  0  0
 10 16  1  0  0  0  0
M  END
> <OPENEYE_ISO_SMILES>
c1cc2c(c(c1)Cl)nc(s2)N

> <OPENEYE_INCHI>
InChI=1S/C7H5ClN2S/c8-4-2-1-3-5-6(4)10-7(9)11-5/h1-3H,(H2,9,10)

> <OPENEYE_INCHIKEY>
OEQQFQXMCPMEIH-UHFFFAOYSA-N

> <FORMULA>
C7H5ClN2S

$$$$
