@<TRIPOS>MOLECULE
/home/pku/3cl/gett_pdb/4YOJ/4YOJ_mol2/ligand/4YOJ_RFM.pdb
 34 38 0 0 0
SMALL
GASTEIGER

@<TRIPOS>ATOM
      1  O01       -7.2430  -21.3800   29.1620 O.2   401  RFM401     -0.2723
      2  C02       -7.1720  -22.2470   28.2890 C.2   401  RFM401      0.2545
      3  N03       -5.9340  -22.9520   28.0780 N.am  401  RFM401     -0.2527
      4  C04       -5.8890  -23.9870   27.0560 C.ar  401  RFM401      0.0543
      5  C05       -6.1110  -25.2840   27.4670 C.ar  401  RFM401      0.0162
      6  C06       -6.0660  -26.3340   26.5300 C.ar  401  RFM401      0.0179
      7  C07       -5.8270  -26.0580   25.2230 C.ar  401  RFM401      0.0738
      8  N08       -5.7380  -27.1000   24.2740 N.am  401  RFM401     -0.1754
      9  C09       -6.4850  -28.3320   24.2740 C.2   401  RFM401      0.2690
     10  C10       -6.1560  -29.3070   23.1450 C.ar  401  RFM401      0.0554
     11  C11       -4.8740  -29.2630   22.6120 C.ar  401  RFM401      0.0046
     12  C12       -4.5150  -30.1510   21.5470 C.ar  401  RFM401      0.0001
     13  C13       -5.4660  -31.0620   21.0580 C.ar  401  RFM401      0.0000
     14  C14       -6.7590  -31.1050   21.5980 C.ar  401  RFM401      0.0001
     15  C15       -7.1190  -30.2180   22.6610 C.ar  401  RFM401      0.0046
     16  O16       -7.3500  -28.6070   25.1170 O.2   401  RFM401     -0.2680
     17  C17       -5.5860  -24.7420   24.8090 C.ar  401  RFM401      0.0179
     18  C18       -5.6240  -23.7000   25.7340 C.ar  401  RFM401      0.0162
     19  C19       -4.7460  -22.6620   28.8600 C.3   401  RFM401      0.1253
     20  C20       -3.6100  -22.4580   27.8530 C.ar  401  RFM401      0.0050
     21  C21       -2.5760  -23.4450   27.5160 C.ar  401  RFM401      0.0328
     22  S22       -1.6020  -22.8570   26.3850 S.2   401  RFM401     -0.0862
     23  C23       -2.2520  -21.3850   26.1480 C.ar  401  RFM401      0.0352
     24  C24       -3.4050  -21.2120   27.0040 C.ar  401  RFM401      0.0049
     25  C25       -8.3670  -22.6100   27.4090 C.3   401  RFM401      0.2141
     26  N26       -9.5580  -21.9350   27.8030 N.ar  401  RFM401     -0.2223
     27  C27      -10.5200  -22.4960   28.6230 C.ar  401  RFM401      0.0994
     28  C28      -10.6240  -23.7560   29.2770 C.ar  401  RFM401      0.0204
     29  C29      -11.7490  -24.0230   30.0610 C.ar  401  RFM401      0.0016
     30  C30      -12.7690  -23.0660   30.1980 C.ar  401  RFM401      0.0017
     31  C31      -12.6580  -21.8240   29.5470 C.ar  401  RFM401      0.0225
     32  C32      -11.5290  -21.5440   28.7570 C.ar  401  RFM401      0.1217
     33  N33      -11.1210  -20.4310   28.0020 N.ar  401  RFM401     -0.1288
     34  N34       -9.9430  -20.6900   27.4400 N.ar  401  RFM401     -0.0634
@<TRIPOS>BOND
     1    13    12   ar
     2    13    14   ar
     3    12    11   ar
     4    14    15   ar
     5    11    10   ar
     6    15    10   ar
     7    10     9    1
     8     8     9   am
     9     8     7    1
    10     9    16    2
    11    17     7   ar
    12    17    18   ar
    13     7     6   ar
    14    18     4   ar
    15    23    22   ar
    16    23    24   ar
    17    22    21   ar
    18     6     5   ar
    19    24    20   ar
    20     4     5   ar
    21     4     3    1
    22    25    26    1
    23    25     2    1
    24    34    26   ar
    25    34    33   ar
    26    21    20   ar
    27    26    27   ar
    28    20    19    1
    29    33    32   ar
    30     3     2   am
    31     3    19    1
    32     2     1    2
    33    27    32   ar
    34    27    28   ar
    35    32    31   ar
    36    28    29   ar
    37    31    30   ar
    38    29    30   ar
