7XB
  -OEChem-02242320013D

 53 55  0     0  0  0  0  0  0999 V2000
   -0.1350    0.4890   -0.6870 C   0  0  0  0  0  0  0  0  0  0  0  0
    2.1440   -0.1780   -1.0020 C   0  0  0  0  0  0  0  0  0  0  0  0
    3.0910   -0.4460   -1.9810 C   0  0  0  0  0  0  0  0  0  0  0  0
    2.6530   -0.8900   -3.3530 C   0  0  0  0  0  0  0  0  0  0  0  0
    4.4360   -0.3060   -1.6970 C   0  0  0  0  0  0  0  0  0  0  0  0
   -4.4300    6.1870   -0.2600 C   0  0  0  0  0  0  0  0  0  0  0  0
   -4.1080    5.0720    0.6330 N   0  0  0  0  0  0  0  0  0  0  0  0
   -3.2350    4.1240    0.2400 C   0  0  0  0  0  0  0  0  0  0  0  0
   -2.7160    4.1940   -0.8540 O   0  0  0  0  0  0  0  0  0  0  0  0
   -2.9040    2.9770    1.1600 C   0  0  0  0  0  0  0  0  0  0  0  0
   -1.9380    2.0900    0.5060 N   0  0  0  0  0  0  0  0  0  0  0  0
   -0.6170    2.3000    0.6610 C   0  0  0  0  0  0  0  0  0  0  0  0
   -0.2280    3.2300    1.3460 O   0  0  0  0  0  0  0  0  0  0  0  0
    0.2710    1.4950    0.0680 N   0  0  0  0  0  0  0  0  0  0  0  0
    0.7800   -0.3260   -1.2870 N   0  0  0  0  0  0  0  0  0  0  0  0
    4.8390    0.1030   -0.4350 C   0  0  0  0  0  0  0  0  0  0  0  0
    6.1630    0.2410   -0.1560 O   0  0  0  0  0  0  0  0  0  0  0  0
    6.5070    0.6660    1.1640 C   0  0  0  0  0  0  0  0  0  0  0  0
    5.9380    1.9190    1.4150 F   0  0  0  0  0  0  0  0  0  0  0  0
    6.0220   -0.2610    2.0930 F   0  0  0  0  0  0  0  0  0  0  0  0
    3.8930    0.3710    0.5440 C   0  0  0  0  0  0  0  0  0  0  0  0
    2.5490    0.2310    0.2620 C   0  0  0  0  0  0  0  0  0  0  0  0
   -1.4740    0.2610   -0.8620 N   0  0  0  0  0  0  0  0  0  0  0  0
   -1.9280   -0.8540   -1.6970 C   0  0  0  0  0  0  0  0  0  0  0  0
   -2.0880   -2.0870   -0.8460 C   0  0  0  0  0  0  0  0  0  0  0  0
   -3.2990   -2.3520   -0.2360 C   0  0  0  0  0  0  0  0  0  0  0  0
   -3.4480   -3.4850    0.5460 C   0  0  0  0  0  0  0  0  0  0  0  0
   -4.6320   -3.7440    1.1420 F   0  0  0  0  0  0  0  0  0  0  0  0
   -2.3810   -4.3520    0.7180 C   0  0  0  0  0  0  0  0  0  0  0  0
   -2.5240   -5.4580    1.4810 F   0  0  0  0  0  0  0  0  0  0  0  0
   -1.1670   -4.0840    0.1050 C   0  0  0  0  0  0  0  0  0  0  0  0
   -0.1250   -4.9290    0.2700 F   0  0  0  0  0  0  0  0  0  0  0  0
   -1.0240   -2.9540   -0.6810 C   0  0  0  0  0  0  0  0  0  0  0  0
   -2.3720    1.0680   -0.2610 C   0  0  0  0  0  0  0  0  0  0  0  0
   -3.5630    0.8760   -0.4080 O   0  0  0  0  0  0  0  0  0  0  0  0
    2.5090   -0.0160   -3.9890 H   0  0  0  0  0  0  0  0  0  0  0  0
    3.4170   -1.5340   -3.7880 H   0  0  0  0  0  0  0  0  0  0  0  0
    1.7150   -1.4400   -3.2740 H   0  0  0  0  0  0  0  0  0  0  0  0
    5.1730   -0.5140   -2.4580 H   0  0  0  0  0  0  0  0  0  0  0  0
   -5.1490    6.8470    0.2260 H   0  0  0  0  0  0  0  0  0  0  0  0
   -3.5220    6.7440   -0.4880 H   0  0  0  0  0  0  0  0  0  0  0  0
   -4.8600    5.8000   -1.1840 H   0  0  0  0  0  0  0  0  0  0  0  0
   -4.5240    5.0160    1.5080 H   0  0  0  0  0  0  0  0  0  0  0  0
   -2.4740    3.3640    2.0830 H   0  0  0  0  0  0  0  0  0  0  0  0
   -3.8130    2.4200    1.3880 H   0  0  0  0  0  0  0  0  0  0  0  0
    0.4870   -1.0080   -1.9120 H   0  0  0  0  0  0  0  0  0  0  0  0
    7.5910    0.7350    1.2530 H   0  0  0  0  0  0  0  0  0  0  0  0
    4.2080    0.6890    1.5270 H   0  0  0  0  0  0  0  0  0  0  0  0
    1.8120    0.4400    1.0240 H   0  0  0  0  0  0  0  0  0  0  0  0
   -2.8860   -0.6000   -2.1520 H   0  0  0  0  0  0  0  0  0  0  0  0
   -1.1940   -1.0440   -2.4800 H   0  0  0  0  0  0  0  0  0  0  0  0
   -4.1310   -1.6760   -0.3700 H   0  0  0  0  0  0  0  0  0  0  0  0
   -0.0780   -2.7450   -1.1590 H   0  0  0  0  0  0  0  0  0  0  0  0
 29 30  1  0  0  0  0
 27 28  1  0  0  0  0
 27 29  2  0  0  0  0
 29 31  1  0  0  0  0
 26 27  1  0  0  0  0
 31 32  1  0  0  0  0
 31 33  2  0  0  0  0
 25 26  2  0  0  0  0
 25 33  1  0  0  0  0
 24 25  1  0  0  0  0
 23 24  1  0  0  0  0
  3  4  1  0  0  0  0
  1 23  1  0  0  0  0
 23 34  1  0  0  0  0
  1 15  1  0  0  0  0
  2 15  1  0  0  0  0
 34 35  2  0  0  0  0
  1 14  2  0  0  0  0
 11 34  1  0  0  0  0
  2  3  2  0  0  0  0
  3  5  1  0  0  0  0
  2 22  1  0  0  0  0
  5 16  2  0  0  0  0
 21 22  2  0  0  0  0
 12 14  1  0  0  0  0
 11 12  1  0  0  0  0
 10 11  1  0  0  0  0
 16 21  1  0  0  0  0
 16 17  1  0  0  0  0
 12 13  2  0  0  0  0
  8 10  1  0  0  0  0
 17 18  1  0  0  0  0
  8  9  2  0  0  0  0
  7  8  1  0  0  0  0
 18 20  1  0  0  0  0
 18 19  1  0  0  0  0
  6  7  1  0  0  0  0
  4 36  1  0  0  0  0
  4 37  1  0  0  0  0
  4 38  1  0  0  0  0
  5 39  1  0  0  0  0
  6 40  1  0  0  0  0
  6 41  1  0  0  0  0
  6 42  1  0  0  0  0
  7 43  1  0  0  0  0
 10 44  1  0  0  0  0
 10 45  1  0  0  0  0
 15 46  1  0  0  0  0
 18 47  1  0  0  0  0
 21 48  1  0  0  0  0
 22 49  1  0  0  0  0
 24 50  1  0  0  0  0
 24 51  1  0  0  0  0
 26 52  1  0  0  0  0
 33 53  1  0  0  0  0
M  END
> <OPENEYE_ISO_SMILES>
Cc1cc(ccc1Nc2nc(=O)n(c(=O)n2Cc3cc(c(c(c3)F)F)F)CC(=O)NC)OC(F)F

> <OPENEYE_INCHI>
InChI=1S/C21H18F5N5O4/c1-10-5-12(35-18(25)26)3-4-15(10)28-19-29-20(33)31(9-16(32)27-2)21(34)30(19)8-11-6-13(22)17(24)14(23)7-11/h3-7,18H,8-9H2,1-2H3,(H,27,32)(H,28,29,33)

> <OPENEYE_INCHIKEY>
JHDIUUFGPILEJO-UHFFFAOYSA-N

> <FORMULA>
C21H18F5N5O4

$$$$
