@<TRIPOS>MOLECULE
/home/pku/3cl/gett_pdb/7TEH/7TEH_mol2/ligand/7TEH_I1Z.pdb
 36 38 0 0 0
SMALL
GASTEIGER

@<TRIPOS>ATOM
      1  C5       -15.5360  -41.1430  -17.1660 C.3   401  I1Z401      0.0326
      2  C3       -14.2930  -39.7820  -15.3800 C.3   401  I1Z401      0.0371
      3  C6       -16.1920  -42.5350  -17.0350 C.3   401  I1Z401      0.1156
      4  C12       -9.8130  -40.0940  -17.0960 C.3   401  I1Z401      0.1535
      5  C8       -15.1710  -42.0570  -14.9770 C.2   401  I1Z401      0.2410
      6  C11      -11.1470  -39.3740  -17.2470 C.2   401  I1Z401      0.2597
      7  C15      -10.4160  -43.5710  -18.5690 C.3   401  I1Z401      0.1727
      8  C16      -11.8200  -43.9750  -19.1470 C.3   401  I1Z401      0.0270
      9  C18      -12.4200  -42.7460  -19.8520 C.3   401  I1Z401      0.0022
     10  C17      -12.8210  -44.4130  -18.0530 C.3   401  I1Z401      0.0022
     11  C19      -11.5790  -45.1320  -20.1580 C.3   401  I1Z401      0.0022
     12  C23       -6.7380  -46.5020  -17.2140 C.3   401  I1Z401      0.0804
     13  C24       -6.5280  -47.3470  -18.4790 C.3   401  I1Z401      0.0218
     14  C25       -6.5720  -47.4020  -15.9890 C.3   401  I1Z401      0.0218
     15  C26       -5.7460  -45.3300  -17.1380 C.3   401  I1Z401      0.0218
     16  O27       -8.0150  -44.6720  -19.1490 O.2   401  I1Z401     -0.2492
     17  C1       -13.4040  -37.5010  -15.7790 C.2   401  I1Z401      0.1171
     18  C14      -10.4260  -42.3590  -17.6230 C.2   401  I1Z401      0.2459
     19  C2       -13.4270  -38.8960  -16.2990 C.3   401  I1Z401      0.1386
     20  C21       -8.5660  -45.0330  -18.0820 C.2   401  I1Z401      0.3395
     21  C29       -9.0030  -40.9840  -19.2490 C.3   401  I1Z401      0.0939
     22  C30       -8.2040  -39.7350  -18.9310 C.3   401  I1Z401      0.0220
     23  C31       -7.2840  -39.6910  -17.7160 C.3   401  I1Z401      0.0037
     24  C32       -6.1560  -38.6560  -17.8420 C.3   401  I1Z401      0.0001
     25  C33       -6.8410  -40.9190  -16.9430 C.3   401  I1Z401      0.0001
     26  C34       -8.7110  -39.1570  -17.6310 C.3   401  I1Z401      0.0289
     27  C4       -14.5040  -41.1380  -16.0180 C.3   401  I1Z401      0.0821
     28  N10      -12.0350  -39.3630  -16.2370 N.am  401  I1Z401     -0.1996
     29  N13       -9.7310  -41.2640  -17.9680 N.am  401  I1Z401     -0.2716
     30  N20       -9.8130  -44.6050  -17.7760 N.am  401  I1Z401     -0.1796
     31  N22       -8.0970  -45.9160  -17.1790 N.am  401  I1Z401     -0.1906
     32  N36      -14.1880  -36.6210  -16.2710 N.2   401  I1Z401     -0.1496
     33  N7       -16.1810  -42.7210  -15.5660 N.am  401  I1Z401     -0.2054
     34  O28      -11.1200  -42.3300  -16.5720 O.2   401  I1Z401     -0.2730
     35  O35      -11.4900  -38.8770  -18.3180 O.2   401  I1Z401     -0.2715
     36  O9       -14.8270  -42.1120  -13.7880 O.2   401  I1Z401     -0.2734
@<TRIPOS>BOND
     1    11     8    1
     2     9     8    1
     3    21    22    1
     4    21    29    1
     5    16    20    2
     6     8     7    1
     7     8    10    1
     8    22    23    1
     9    22    26    1
    10     7    30    1
    11     7    18    1
    12    13    12    1
    13    35     6    2
    14    20    30   am
    15    20    31   am
    16    29    18   am
    17    29     4    1
    18    24    23    1
    19    23    26    1
    20    23    25    1
    21    26     4    1
    22    18    34    2
    23     6     4    1
    24     6    28   am
    25    12    31    1
    26    12    15    1
    27    12    14    1
    28     1     3    1
    29     1    27    1
    30     3    33    1
    31    19    28    1
    32    19    17    1
    33    19     2    1
    34    32    17    2
    35    27     2    1
    36    27     5    1
    37    33     5   am
    38     5    36    2
