@<TRIPOS>MOLECULE
/home/pku/3cl/gett_pdb/7S75/7S75_mol2/ligand/7S75_8I7.pdb
 35 37 0 0 0
SMALL
GASTEIGER

@<TRIPOS>ATOM
      1  C1        -7.2110  -19.8960  -17.9440 C.3   401  8I7401      0.0868
      2  C11       -9.6350  -17.2170  -19.1260 C.3   401  8I7401      0.1711
      3  C12       -9.6810  -15.9940  -18.2480 C.2   401  8I7401      0.2458
      4  C13       -8.2080  -14.7550  -19.8710 C.3   401  8I7401      0.0939
      5  C14       -9.1900  -13.6470  -17.9460 C.3   401  8I7401      0.1535
      6  C15      -10.6110  -13.1600  -18.0650 C.2   401  8I7401      0.2595
      7  C16       -7.6030  -13.3540  -19.8160 C.3   401  8I7401      0.0220
      8  C17      -12.5940  -12.2280  -17.0040 C.3   401  8I7401      0.1287
      9  C18       -6.7420  -13.0440  -18.5780 C.3   401  8I7401      0.0037
     10  C19      -13.5110  -12.9760  -16.0270 C.3   401  8I7401      0.0335
     11  C2        -6.5550  -19.2480  -16.7290 C.3   401  8I7401      0.0091
     12  C20      -13.6250  -14.4260  -16.4670 C.3   401  8I7401      0.0818
     13  C21      -14.4670  -14.5860  -17.7290 C.3   401  8I7401      0.0326
     14  C22      -15.2600  -15.8690  -17.4970 C.3   401  8I7401      0.1156
     15  C23       -6.2140  -14.2620  -17.8150 C.3   401  8I7401      0.0001
     16  C24      -14.3160  -15.3050  -15.4640 C.2   401  8I7401      0.2410
     17  C25       -5.6710  -12.0120  -18.9410 C.3   401  8I7401      0.0001
     18  C26      -11.6170  -16.4120  -20.4530 C.3   401  8I7401      0.0022
     19  C3        -6.0230  -17.8660  -17.0870 C.3   401  8I7401      0.0005
     20  C30      -10.9970  -17.6160  -19.7410 C.3   401  8I7401      0.0269
     21  C31      -12.0020  -18.1270  -18.7080 C.3   401  8I7401      0.0022
     22  C32      -10.7820  -18.6940  -20.7940 C.3   401  8I7401      0.0022
     23  C34       -8.2260  -12.6530  -18.6060 C.3   401  8I7401      0.0289
     24  C4        -5.4400  -20.1240  -16.1620 C.3   401  8I7401      0.0005
     25  C8       -12.5420  -10.7390  -16.6480 C.3   401  8I7401      0.2036
     26  C9        -7.8650  -18.8540  -18.8230 C.2   401  8I7401      0.2418
     27  N10       -9.0060  -18.3080  -18.3890 N.am  401  8I7401     -0.1978
     28  N13       -9.0670  -14.8900  -18.6920 N.am  401  8I7401     -0.2716
     29  N16      -11.2390  -12.7800  -16.9550 N.am  401  8I7401     -0.2031
     30  N23      -15.2370  -16.0640  -16.0570 N.am  401  8I7401     -0.2054
     31  O26      -14.0270  -15.3000  -14.2770 O.2   401  8I7401     -0.2734
     32  O29       -7.3530  -18.5470  -19.8980 O.2   401  8I7401     -0.2733
     33  O33      -10.2200  -16.0510  -17.1570 O.2   401  8I7401     -0.2730
     34  O38      -11.1520  -13.1250  -19.1530 O.2   401  8I7401     -0.2716
     35  O9       -13.8650  -10.2060  -16.4540 O.3   401  8I7401     -0.2185
@<TRIPOS>BOND
     1    22    20    1
     2    18    20    1
     3    32    26    2
     4     4     7    1
     5     4    28    1
     6     7    23    1
     7     7     9    1
     8    20     2    1
     9    20    21    1
    10    34     6    2
    11     2    27    1
    12     2     3    1
    13    17     9    1
    14    26    27   am
    15    26     1    1
    16    28     3   am
    17    28     5    1
    18    23     9    1
    19    23     5    1
    20     9    15    1
    21     3    33    2
    22     6     5    1
    23     6    29   am
    24     1    11    1
    25    13    14    1
    26    13    12    1
    27    14    30    1
    28    19    11    1
    29     8    29    1
    30     8    25    1
    31     8    10    1
    32    11    24    1
    33    25    35    1
    34    12    10    1
    35    12    16    1
    36    30    16   am
    37    16    31    2
