@<TRIPOS>MOLECULE
/home/pku/3cl/gett_pdb/7OGN/7OGN_mol2/ligand/7OGN_GTP.pdb
 41 43 0 0 0
SMALL
GASTEIGER

@<TRIPOS>ATOM
      1  PG        27.2330   73.7690   45.8330 P.3   501  GTP501      0.5373
      2  O1G       28.5160   74.0330   45.0760 O.2   501  GTP501     -0.2221
      3  O2G       27.0570   72.2840   46.0220 O.3   501  GTP501     -0.1143
      4  O3G       26.0590   74.3550   45.0890 O.3   501  GTP501     -0.1143
      5  O3B       27.4000   74.4700   47.2790 O.3   501  GTP501     -0.2258
      6  PB        26.4690   75.7100   47.7170 P.3   501  GTP501      0.2277
      7  O1B       27.0530   76.2870   48.9890 O.3   501  GTP501     -0.4368
      8  O2B       26.3030   76.7540   46.6430 O.2   501  GTP501     -0.5168
      9  O3A       25.0630   74.9870   47.9950 O.3   501  GTP501     -0.2700
     10  PA        23.9390   75.5950   48.9670 P.3   501  GTP501      0.2189
     11  O1A       24.4860   76.7770   49.7330 O.3   501  GTP501     -0.4371
     12  O2A       22.7230   75.9730   48.1600 O.2   501  GTP501     -0.5170
     13  O5'       23.6840   74.3580   49.9640 O.3   501  GTP501     -0.3116
     14  C5'       22.4310   73.7320   50.1080 C.3   501  GTP501      0.1743
     15  C4'       21.8880   73.9930   51.5080 C.3   501  GTP501      0.1280
     16  O4'       21.8490   75.3900   51.7550 O.3   501  GTP501     -0.3447
     17  C3'       20.4700   73.4770   51.6590 C.3   501  GTP501      0.1526
     18  O3'       20.2920   72.9570   52.9560 O.3   501  GTP501     -0.2255
     19  C2'       19.6190   74.7090   51.4620 C.3   501  GTP501      0.1319
     20  O2'       18.4020   74.6010   52.1550 O.3   501  GTP501     -0.3845
     21  C1'       20.5170   75.8180   51.9900 C.3   501  GTP501      0.1668
     22  N9        20.2910   77.0940   51.2970 N.ar  501  GTP501     -0.2854
     23  C8        20.5920   77.4020   49.9970 C.ar  501  GTP501      0.1005
     24  N7        20.2380   78.6920   49.7760 N.ar  501  GTP501     -0.2286
     25  C5        19.7250   79.2090   50.9160 C.ar  501  GTP501      0.1721
     26  C6        19.2160   80.4590   51.2490 C.ar  501  GTP501      0.2803
     27  O6        19.1720   81.3580   50.4100 O.2   501  GTP501     -0.2654
     28  N1        18.7550   80.6860   52.5310 N.ar  501  GTP501     -0.2934
     29  C2        18.8020   79.6740   53.4690 C.ar  501  GTP501      0.1950
     30  N2        18.3680   79.8710   54.7100 N.pl3 501  GTP501     -0.3289
     31  N3        19.3080   78.4440   53.1270 N.ar  501  GTP501     -0.1963
     32  C4        19.7600   78.2130   51.8770 C.ar  501  GTP501      0.1712
     33  H4'       22.5470   73.4830   52.2100 H     501  GTP501      0.0656
     34  H3'       20.2210   72.6770   50.9620 H     501  GTP501      0.0683
     35  H2'       19.3080   74.8830   50.4310 H     501  GTP501      0.0667
     36 HO2'       18.3320   75.3300   52.8070 H     501  GTP501      0.2101
     37  H1'       20.2980   75.9810   53.0450 H     501  GTP501      0.0866
     38  H8        21.0390   76.7270   49.2670 H     501  GTP501      0.1030
     39  HN1       18.3740   81.6180   52.7900 H     501  GTP501      0.1716
     40 HN21       18.4130   79.1180   55.3890 H     501  GTP501      0.1451
     41 HN22       17.9910   80.7740   54.9790 H     501  GTP501      0.1451
@<TRIPOS>BOND
     1     2     1    2
     2     4     1    1
     3     1     3    1
     4     1     5    1
     5     8     6    2
     6     5     6    1
     7     6     9    1
     8     6     7    1
     9     9    10    1
    10    12    10    2
    11    10    11    1
    12    10    13    1
    13    38    23    1
    14    24    23   ar
    15    24    25   ar
    16    13    14    1
    17    23    22   ar
    18    14    15    1
    19    27    26    2
    20    35    19    1
    21    25    26   ar
    22    25    32   ar
    23    34    17    1
    24    26    28   ar
    25    22    32   ar
    26    22    21    1
    27    19    17    1
    28    19    21    1
    29    19    20    1
    30    15    17    1
    31    15    16    1
    32    15    33    1
    33    17    18    1
    34    16    21    1
    35    32    31   ar
    36    21    37    1
    37    20    36    1
    38    28    39    1
    39    28    29   ar
    40    31    29   ar
    41    29    30    1
    42    30    41    1
    43    30    40    1
