WIX
  -OEChem-02242320043D

 71 72  0     1  0  0  0  0  0999 V2000
   -7.8570    0.7050    0.5870 C   0  0  0  0  0  0  0  0  0  0  0  0
   -6.6260    0.1510    0.2850 C   0  0  0  0  0  0  0  0  0  0  0  0
   -6.4260   -0.4640   -0.9370 C   0  0  0  0  0  0  0  0  0  0  0  0
   -5.0850   -1.0680   -1.2660 C   0  0  2  0  0  0  0  0  0  0  0  0
   -5.0580   -2.5290   -0.8140 C   0  0  0  0  0  0  0  0  0  0  0  0
   -3.9840   -0.2900   -0.5430 C   0  0  0  0  0  0  0  0  0  0  0  0
   -1.6100   -0.2990   -0.3000 C   0  0  0  0  0  0  0  0  0  0  0  0
    0.7970   -0.1680    0.0570 C   0  0  1  0  0  0  0  0  0  0  0  0
    1.0140   -0.7480    1.4560 C   0  0  0  0  0  0  0  0  0  0  0  0
   -0.1610   -0.3610    2.3560 C   0  0  0  0  0  0  0  0  0  0  0  0
   -0.0070   -1.0440    3.7170 C   0  0  0  0  0  0  0  0  0  0  0  0
   -0.1790    1.1560    2.5470 C   0  0  0  0  0  0  0  0  0  0  0  0
    2.0090   -0.4430   -0.7950 C   0  0  0  0  0  0  0  0  0  0  0  0
    4.3930   -0.2330   -1.2550 C   0  0  1  0  0  0  0  0  0  0  0  0
    5.4400    0.8570   -1.0200 C   0  0  0  0  0  0  0  0  0  0  0  0
    4.8960    2.2000   -1.5120 C   0  0  1  0  0  0  0  0  0  0  0  0
    3.7530    2.6620   -0.6360 C   0  0  0  0  0  0  0  0  0  0  0  0
    5.6080    3.9020    0.0210 C   0  0  0  0  0  0  0  0  0  0  0  0
    5.9660    3.3060   -1.3590 C   0  0  0  0  0  0  0  0  0  0  0  0
    4.9810   -1.5950   -0.8780 C   0  0  1  0  0  0  0  0  0  0  0  0
   -7.4560   -0.5260   -1.8560 C   0  0  0  0  0  0  0  0  0  0  0  0
   -8.6870    0.0270   -1.5540 C   0  0  0  0  0  0  0  0  0  0  0  0
   -8.8880    0.6420   -0.3330 C   0  0  0  0  0  0  0  0  0  0  0  0
   -0.3800   -0.7900   -0.5530 N   0  0  0  0  0  0  0  0  0  0  0  0
    3.2140    0.0350   -0.4270 N   0  0  0  0  0  0  0  0  0  0  0  0
    4.1760    3.6170    0.2100 N   0  0  0  0  0  0  0  0  0  0  0  0
   -4.8670   -1.0020   -2.6770 O   0  0  0  0  0  0  0  0  0  0  0  0
   -2.6920   -0.8710   -0.8600 O   0  0  0  0  0  0  0  0  0  0  0  0
    2.6200    2.2330   -0.6890 O   0  0  0  0  0  0  0  0  0  0  0  0
    6.1950   -1.8050   -1.6020 O   0  0  0  0  0  0  0  0  0  0  0  0
    1.9000   -1.0960   -1.8110 O   0  0  0  0  0  0  0  0  0  0  0  0
   -1.7420    0.6600    0.4350 O   0  0  0  0  0  0  0  0  0  0  0  0
   -8.1100    1.4710    2.1240 Cl  0  0  0  0  0  0  0  0  0  0  0  0
    5.3250   -1.6340    0.9020 S   0  0  0  0  0  0  0  0  0  0  0  0
   -5.8200    0.2000    1.0030 H   0  0  0  0  0  0  0  0  0  0  0  0
   -5.8430   -3.0830   -1.3300 H   0  0  0  0  0  0  0  0  0  0  0  0
   -4.0880   -2.9660   -1.0530 H   0  0  0  0  0  0  0  0  0  0  0  0
   -5.2250   -2.5790    0.2620 H   0  0  0  0  0  0  0  0  0  0  0  0
   -4.0030    0.7510   -0.8650 H   0  0  0  0  0  0  0  0  0  0  0  0
   -4.1500   -0.3400    0.5330 H   0  0  0  0  0  0  0  0  0  0  0  0
    0.6420    0.9090    0.1310 H   0  0  0  0  0  0  0  0  0  0  0  0
    1.0800   -1.8340    1.3920 H   0  0  0  0  0  0  0  0  0  0  0  0
    1.9390   -0.3520    1.8750 H   0  0  0  0  0  0  0  0  0  0  0  0
   -1.0950   -0.6810    1.8930 H   0  0  0  0  0  0  0  0  0  0  0  0
    0.9260   -0.7250    4.1800 H   0  0  0  0  0  0  0  0  0  0  0  0
   -0.8440   -0.7690    4.3590 H   0  0  0  0  0  0  0  0  0  0  0  0
    0.0050   -2.1260    3.5810 H   0  0  0  0  0  0  0  0  0  0  0  0
   -0.2890    1.6430    1.5780 H   0  0  0  0  0  0  0  0  0  0  0  0
   -1.0160    1.4320    3.1880 H   0  0  0  0  0  0  0  0  0  0  0  0
    0.7540    1.4760    3.0100 H   0  0  0  0  0  0  0  0  0  0  0  0
    4.1040   -0.2400   -2.3060 H   0  0  0  0  0  0  0  0  0  0  0  0
    5.6630    0.9240    0.0450 H   0  0  0  0  0  0  0  0  0  0  0  0
    6.3500    0.6110   -1.5670 H   0  0  0  0  0  0  0  0  0  0  0  0
    4.5740    2.1230   -2.5510 H   0  0  0  0  0  0  0  0  0  0  0  0
    6.1950    3.4210    0.8030 H   0  0  0  0  0  0  0  0  0  0  0  0
    5.7850    4.9770    0.0240 H   0  0  0  0  0  0  0  0  0  0  0  0
    6.9700    2.8800   -1.3520 H   0  0  0  0  0  0  0  0  0  0  0  0
    5.8680    4.0550   -2.1450 H   0  0  0  0  0  0  0  0  0  0  0  0
    4.2680   -2.3800   -1.1280 H   0  0  0  0  0  0  0  0  0  0  0  0
   -7.3000   -1.0070   -2.8100 H   0  0  0  0  0  0  0  0  0  0  0  0
   -9.4910   -0.0210   -2.2730 H   0  0  0  0  0  0  0  0  0  0  0  0
   -9.8510    1.0700   -0.0960 H   0  0  0  0  0  0  0  0  0  0  0  0
   -0.2750   -1.5560   -1.1400 H   0  0  0  0  0  0  0  0  0  0  0  0
    3.3020    0.5560    0.3870 H   0  0  0  0  0  0  0  0  0  0  0  0
    3.6110    4.0630    0.8610 H   0  0  0  0  0  0  0  0  0  0  0  0
   -4.8710   -0.1030   -3.0340 H   0  0  0  0  0  0  0  0  0  0  0  0
    6.8770   -1.1410   -1.4280 H   0  0  0  0  0  0  0  0  0  0  0  0
    6.0160   -2.9710    1.1270 O   0  0  0  0  0  0  0  0  0  0  0  0
    6.3110   -0.6680    1.2410 O   0  0  0  0  0  0  0  0  0  0  0  0
    4.1150   -1.7360    1.6410 O   0  0  0  0  0  0  0  0  0  0  0  0
    6.2640   -3.1360    2.0470 H   0  0  0  0  0  0  0  0  0  0  0  0
 18 26  1  0  0  0  0
 17 26  1  0  0  0  0
 18 19  1  0  0  0  0
 17 29  2  0  0  0  0
 16 17  1  0  0  0  0
 16 19  1  0  0  0  0
 20 30  1  0  0  0  0
 15 16  1  0  0  0  0
 14 15  1  0  0  0  0
 14 20  1  0  0  0  0
 14 25  1  0  0  0  0
 20 34  1  0  0  0  0
  4 27  1  0  0  0  0
 13 25  1  0  0  0  0
  4  5  1  0  0  0  0
 13 31  2  0  0  0  0
  4  6  1  0  0  0  0
  6 28  1  0  0  0  0
  3  4  1  0  0  0  0
  8 13  1  0  0  0  0
  7 32  2  0  0  0  0
  7 28  1  0  0  0  0
  7 24  1  0  0  0  0
  3 21  2  0  0  0  0
  2  3  1  0  0  0  0
  8 24  1  0  0  0  0
  8  9  1  0  0  0  0
 21 22  1  0  0  0  0
  1  2  2  0  0  0  0
  9 10  1  0  0  0  0
 22 23  2  0  0  0  0
  1 23  1  0  0  0  0
  1 33  1  0  0  0  0
 10 12  1  0  0  0  0
 10 11  1  0  0  0  0
  2 35  1  0  0  0  0
  5 36  1  0  0  0  0
  5 37  1  0  0  0  0
  5 38  1  0  0  0  0
  6 39  1  0  0  0  0
  6 40  1  0  0  0  0
  8 41  1  0  0  0  0
  9 42  1  0  0  0  0
  9 43  1  0  0  0  0
 10 44  1  0  0  0  0
 11 45  1  0  0  0  0
 11 46  1  0  0  0  0
 11 47  1  0  0  0  0
 12 48  1  0  0  0  0
 12 49  1  0  0  0  0
 12 50  1  0  0  0  0
 14 51  1  0  0  0  0
 15 52  1  0  0  0  0
 15 53  1  0  0  0  0
 16 54  1  0  0  0  0
 18 55  1  0  0  0  0
 18 56  1  0  0  0  0
 19 57  1  0  0  0  0
 19 58  1  0  0  0  0
 20 59  1  0  0  0  0
 21 60  1  0  0  0  0
 22 61  1  0  0  0  0
 23 62  1  0  0  0  0
 24 63  1  0  0  0  0
 25 64  1  0  0  0  0
 26 65  1  0  0  0  0
 27 66  1  0  0  0  0
 30 67  1  0  0  0  0
 34 68  1  0  0  0  0
 34 69  2  0  0  0  0
 34 70  2  0  0  0  0
 68 71  1  0  0  0  0
M  END
> <OPENEYE_ISO_SMILES>
CC(C)C[C@@H](C(=O)N[C@@H](C[C@@H]1CCNC1=O)[C@@H](O)S(=O)(=O)O)NC(=O)OC[C@@](C)(c2cccc(c2)Cl)O

> <OPENEYE_INCHI>
InChI=1S/C23H34ClN3O9S/c1-13(2)9-17(27-22(31)36-12-23(3,32)15-5-4-6-16(24)11-15)20(29)26-18(21(30)37(33,34)35)10-14-7-8-25-19(14)28/h4-6,11,13-14,17-18,21,30,32H,7-10,12H2,1-3H3,(H,25,28)(H,26,29)(H,27,31)(H,33,34,35)/t14-,17-,18-,21-,23-/m0/s1

> <OPENEYE_INCHIKEY>
HSKHDUVNVQYLID-GRIKLCOCSA-N

> <FORMULA>
C23H34ClN3O9S

$$$$
