WJ0
  -OEChem-02242320043D

 69 70  0     1  0  0  0  0  0999 V2000
   -2.3510   -1.5140   -2.4330 C   0  0  0  0  0  0  0  0  0  0  0  0
   -1.9850   -0.4420   -3.4620 C   0  0  0  0  0  0  0  0  0  0  0  0
   -2.5910   -2.8450   -3.1470 C   0  0  0  0  0  0  0  0  0  0  0  0
   -2.3020   -0.2500    0.2780 C   0  0  0  0  0  0  0  0  0  0  0  0
   -4.6050    0.4690    0.6210 C   0  0  1  0  0  0  0  0  0  0  0  0
   -5.1380    1.8790    0.3590 C   0  0  0  0  0  0  0  0  0  0  0  0
   -5.1200   -2.2130    0.7730 S   0  0  0  0  0  0  0  0  0  0  0  0
    8.5170    0.0080    0.0610 C   0  0  0  0  0  0  0  0  0  0  0  0
    7.3220   -0.4270    0.6050 C   0  0  0  0  0  0  0  0  0  0  0  0
    6.1390    0.2010    0.2640 C   0  0  0  0  0  0  0  0  0  0  0  0
    4.8370   -0.2730    0.8570 C   0  0  1  0  0  0  0  0  0  0  0  0
    4.5640    0.4830    2.1590 C   0  0  0  0  0  0  0  0  0  0  0  0
    3.7000   -0.0090   -0.1330 C   0  0  0  0  0  0  0  0  0  0  0  0
    1.3230   -0.1810   -0.2610 C   0  0  0  0  0  0  0  0  0  0  0  0
   -1.0810   -0.3980   -0.5930 C   0  0  2  0  0  0  0  0  0  0  0  0
   -1.2040   -1.6710   -1.4320 C   0  0  0  0  0  0  0  0  0  0  0  0
   -4.0990    2.9090    0.8080 C   0  0  1  0  0  0  0  0  0  0  0  0
   -2.9850    3.0290   -0.2130 C   0  0  0  0  0  0  0  0  0  0  0  0
   -3.8610    5.0720   -0.1940 C   0  0  0  0  0  0  0  0  0  0  0  0
   -4.7050    4.3290    0.8180 C   0  0  0  0  0  0  0  0  0  0  0  0
   -5.7030   -0.5540    0.3260 C   0  0  1  0  0  0  0  0  0  0  0  0
    6.1500    1.2640   -0.6200 C   0  0  0  0  0  0  0  0  0  0  0  0
    7.3440    1.6990   -1.1640 C   0  0  0  0  0  0  0  0  0  0  0  0
    8.5280    1.0710   -0.8240 C   0  0  0  0  0  0  0  0  0  0  0  0
    0.1130   -0.4830    0.2510 N   0  0  0  0  0  0  0  0  0  0  0  0
   -3.4530    0.2130   -0.2480 N   0  0  0  0  0  0  0  0  0  0  0  0
   -2.9700    4.2830   -0.6860 N   0  0  0  0  0  0  0  0  0  0  0  0
    4.9180   -1.6730    1.1270 O   0  0  0  0  0  0  0  0  0  0  0  0
    2.4320   -0.3550    0.4830 O   0  0  0  0  0  0  0  0  0  0  0  0
   -2.2330    2.1380   -0.5460 O   0  0  0  0  0  0  0  0  0  0  0  0
   -6.8680   -0.2370    1.0910 O   0  0  0  0  0  0  0  0  0  0  0  0
   -2.2490   -0.5480    1.4530 O   0  0  0  0  0  0  0  0  0  0  0  0
    1.4130    0.2500   -1.3940 O   0  0  0  0  0  0  0  0  0  0  0  0
   10.0040   -0.7760    0.4940 Cl  0  0  0  0  0  0  0  0  0  0  0  0
   -3.2560   -1.2160   -1.9050 H   0  0  0  0  0  0  0  0  0  0  0  0
   -2.8270   -0.2820   -4.1350 H   0  0  0  0  0  0  0  0  0  0  0  0
   -1.7490    0.4900   -2.9480 H   0  0  0  0  0  0  0  0  0  0  0  0
   -1.1180   -0.7700   -4.0360 H   0  0  0  0  0  0  0  0  0  0  0  0
   -2.8520   -3.6090   -2.4140 H   0  0  0  0  0  0  0  0  0  0  0  0
   -3.4080   -2.7330   -3.8600 H   0  0  0  0  0  0  0  0  0  0  0  0
   -1.6850   -3.1430   -3.6750 H   0  0  0  0  0  0  0  0  0  0  0  0
   -4.2990    0.3840    1.6640 H   0  0  0  0  0  0  0  0  0  0  0  0
   -5.3330    2.0020   -0.7060 H   0  0  0  0  0  0  0  0  0  0  0  0
   -6.0620    2.0280    0.9180 H   0  0  0  0  0  0  0  0  0  0  0  0
    7.3130   -1.2570    1.2960 H   0  0  0  0  0  0  0  0  0  0  0  0
    4.5020    1.5520    1.9530 H   0  0  0  0  0  0  0  0  0  0  0  0
    3.6220    0.1410    2.5880 H   0  0  0  0  0  0  0  0  0  0  0  0
    5.3740    0.2950    2.8640 H   0  0  0  0  0  0  0  0  0  0  0  0
    3.6950    1.0460   -0.4070 H   0  0  0  0  0  0  0  0  0  0  0  0
    3.8480   -0.6160   -1.0260 H   0  0  0  0  0  0  0  0  0  0  0  0
   -0.9990    0.4650   -1.2530 H   0  0  0  0  0  0  0  0  0  0  0  0
   -1.4080   -2.5190   -0.7780 H   0  0  0  0  0  0  0  0  0  0  0  0
   -0.2730   -1.8440   -1.9700 H   0  0  0  0  0  0  0  0  0  0  0  0
   -3.7010    2.6510    1.7900 H   0  0  0  0  0  0  0  0  0  0  0  0
   -3.9870    6.1100   -0.4650 H   0  0  0  0  0  0  0  0  0  0  0  0
   -5.7480    4.3040    0.5050 H   0  0  0  0  0  0  0  0  0  0  0  0
   -4.6080    4.7810    1.8050 H   0  0  0  0  0  0  0  0  0  0  0  0
   -5.9480   -0.5290   -0.7360 H   0  0  0  0  0  0  0  0  0  0  0  0
    5.2250    1.7540   -0.8870 H   0  0  0  0  0  0  0  0  0  0  0  0
    7.3520    2.5280   -1.8550 H   0  0  0  0  0  0  0  0  0  0  0  0
    9.4600    1.4110   -1.2490 H   0  0  0  0  0  0  0  0  0  0  0  0
    0.0340   -0.7570    1.1780 H   0  0  0  0  0  0  0  0  0  0  0  0
   -3.5190    0.3780   -1.2020 H   0  0  0  0  0  0  0  0  0  0  0  0
    5.0890   -2.2160    0.3450 H   0  0  0  0  0  0  0  0  0  0  0  0
   -7.2350    0.6380    0.9030 H   0  0  0  0  0  0  0  0  0  0  0  0
   -3.8620   -2.4100   -0.0610 O   0  0  0  0  0  0  0  0  0  0  0  0
   -4.6560   -2.2340    2.1160 O   0  0  0  0  0  0  0  0  0  0  0  0
   -6.0180   -3.2040    0.2920 O   0  0  0  0  0  0  0  0  0  0  0  0
   -3.4320   -3.2660    0.0730 H   0  0  0  0  0  0  0  0  0  0  0  0
  8 34  1  0  0  0  0
  1  2  1  0  0  0  0
  8 24  2  0  0  0  0
 23 24  1  0  0  0  0
  1  3  1  0  0  0  0
  8  9  1  0  0  0  0
  1 16  1  0  0  0  0
 22 23  2  0  0  0  0
  9 10  2  0  0  0  0
 15 16  1  0  0  0  0
 10 22  1  0  0  0  0
 10 11  1  0  0  0  0
 15 25  1  0  0  0  0
 14 25  1  0  0  0  0
  4 15  1  0  0  0  0
 14 29  1  0  0  0  0
 14 33  2  0  0  0  0
 13 29  1  0  0  0  0
 11 13  1  0  0  0  0
 11 12  1  0  0  0  0
 11 28  1  0  0  0  0
  4 32  2  0  0  0  0
  4 26  1  0  0  0  0
  5 26  1  0  0  0  0
  7 21  1  0  0  0  0
 21 31  1  0  0  0  0
  5 21  1  0  0  0  0
  5  6  1  0  0  0  0
  6 17  1  0  0  0  0
 17 20  1  0  0  0  0
 17 18  1  0  0  0  0
 19 20  1  0  0  0  0
 18 30  2  0  0  0  0
 18 27  1  0  0  0  0
 19 27  2  0  0  0  0
  1 35  1  0  0  0  0
  2 36  1  0  0  0  0
  2 37  1  0  0  0  0
  2 38  1  0  0  0  0
  3 39  1  0  0  0  0
  3 40  1  0  0  0  0
  3 41  1  0  0  0  0
  5 42  1  0  0  0  0
  6 43  1  0  0  0  0
  6 44  1  0  0  0  0
  9 45  1  0  0  0  0
 12 46  1  0  0  0  0
 12 47  1  0  0  0  0
 12 48  1  0  0  0  0
 13 49  1  0  0  0  0
 13 50  1  0  0  0  0
 15 51  1  0  0  0  0
 16 52  1  0  0  0  0
 16 53  1  0  0  0  0
 17 54  1  0  0  0  0
 19 55  1  0  0  0  0
 20 56  1  0  0  0  0
 20 57  1  0  0  0  0
 21 58  1  0  0  0  0
 22 59  1  0  0  0  0
 23 60  1  0  0  0  0
 24 61  1  0  0  0  0
 25 62  1  0  0  0  0
 26 63  1  0  0  0  0
 28 64  1  0  0  0  0
 31 65  1  0  0  0  0
  7 66  1  0  0  0  0
  7 67  2  0  0  0  0
  7 68  2  0  0  0  0
 66 69  1  0  0  0  0
M  END
> <OPENEYE_ISO_SMILES>
CC(C)C[C@@H](C(=O)N[C@@H](C[C@@H]1CC=NC1=O)[C@H](O)S(=O)(=O)O)NC(=O)OC[C@](C)(c2cccc(c2)Cl)O

> <OPENEYE_INCHI>
InChI=1S/C23H32ClN3O9S/c1-13(2)9-17(27-22(31)36-12-23(3,32)15-5-4-6-16(24)11-15)20(29)26-18(21(30)37(33,34)35)10-14-7-8-25-19(14)28/h4-6,8,11,13-14,17-18,21,30,32H,7,9-10,12H2,1-3H3,(H,26,29)(H,27,31)(H,33,34,35)/t14-,17-,18-,21+,23+/m0/s1

> <OPENEYE_INCHIKEY>
ZBIMUYMJHGTCAY-BNVIUNNUSA-N

> <FORMULA>
C23H32ClN3O9S

$$$$
