Z26
  -OEChem-02242320043D

 38 40  0     0  0  0  0  0  0999 V2000
    2.3760   -0.4490   -0.6480 C   0  0  0  0  0  0  0  0  0  0  0  0
   -4.6160    0.6400    0.5410 C   0  0  0  0  0  0  0  0  0  0  0  0
   -4.2700    1.6550    1.4480 C   0  0  0  0  0  0  0  0  0  0  0  0
   -2.0750    1.6480    0.7110 C   0  0  0  0  0  0  0  0  0  0  0  0
   -3.9370   -0.8910   -1.2290 C   0  0  0  0  0  0  0  0  0  0  0  0
   -5.2140   -1.3630   -1.2810 C   0  0  0  0  0  0  0  0  0  0  0  0
   -6.2020   -0.8510   -0.4430 C   0  0  0  0  0  0  0  0  0  0  0  0
   -5.9220    0.1330    0.4550 C   0  0  0  0  0  0  0  0  0  0  0  0
    3.8950   -1.4260    0.9350 C   0  0  0  0  0  0  0  0  0  0  0  0
    1.0730   -0.4890   -1.4050 C   0  0  0  0  0  0  0  0  0  0  0  0
    2.6920   -1.4630    0.2440 C   0  0  0  0  0  0  0  0  0  0  0  0
    2.2170   -3.5010    1.3730 C   0  0  0  0  0  0  0  0  0  0  0  0
   -0.0190    0.1120   -0.5580 C   0  0  0  0  0  0  0  0  0  0  0  0
    3.2580    0.5960   -0.8450 C   0  0  0  0  0  0  0  0  0  0  0  0
    4.4560    0.6310   -0.1550 C   0  0  0  0  0  0  0  0  0  0  0  0
    4.7740   -0.3800    0.7350 C   0  0  0  0  0  0  0  0  0  0  0  0
   -2.3080    0.6530   -0.2150 C   0  0  0  0  0  0  0  0  0  0  0  0
   -3.6120    0.1210   -0.3170 C   0  0  0  0  0  0  0  0  0  0  0  0
   -3.0390    2.1070    1.4940 N   0  0  0  0  0  0  0  0  0  0  0  0
   -1.2780    0.1820   -1.0330 N   0  0  0  0  0  0  0  0  0  0  0  0
    0.2350    0.5310    0.5510 O   0  0  0  0  0  0  0  0  0  0  0  0
    1.8250   -2.4910    0.4400 O   0  0  0  0  0  0  0  0  0  0  0  0
    5.5630    1.9440   -0.4050 Cl  0  0  0  0  0  0  0  0  0  0  0  0
   -5.0200    2.0640    2.1090 H   0  0  0  0  0  0  0  0  0  0  0  0
   -1.0820    2.0640    0.7990 H   0  0  0  0  0  0  0  0  0  0  0  0
   -3.1800   -1.2930   -1.8870 H   0  0  0  0  0  0  0  0  0  0  0  0
   -5.4640   -2.1430   -1.9850 H   0  0  0  0  0  0  0  0  0  0  0  0
   -7.2080   -1.2410   -0.5080 H   0  0  0  0  0  0  0  0  0  0  0  0
   -6.6990    0.5190    1.0980 H   0  0  0  0  0  0  0  0  0  0  0  0
    4.1420   -2.2150    1.6300 H   0  0  0  0  0  0  0  0  0  0  0  0
    1.1720    0.0810   -2.3280 H   0  0  0  0  0  0  0  0  0  0  0  0
    0.8230   -1.5230   -1.6410 H   0  0  0  0  0  0  0  0  0  0  0  0
    1.4370   -4.2600    1.4350 H   0  0  0  0  0  0  0  0  0  0  0  0
    3.1470   -3.9610    1.0410 H   0  0  0  0  0  0  0  0  0  0  0  0
    2.3640   -3.0510    2.3550 H   0  0  0  0  0  0  0  0  0  0  0  0
    3.0120    1.3860   -1.5400 H   0  0  0  0  0  0  0  0  0  0  0  0
    5.7100   -0.3510    1.2730 H   0  0  0  0  0  0  0  0  0  0  0  0
   -1.4690   -0.0940   -1.9430 H   0  0  0  0  0  0  0  0  0  0  0  0
  7  8  2  0  0  0  0
  6  7  1  0  0  0  0
  2  8  1  0  0  0  0
  5  6  2  0  0  0  0
  2  3  2  0  0  0  0
  2 18  1  0  0  0  0
  3 19  1  0  0  0  0
  5 18  1  0  0  0  0
 17 18  2  0  0  0  0
  4 19  2  0  0  0  0
  4 17  1  0  0  0  0
 17 20  1  0  0  0  0
 13 20  1  0  0  0  0
 13 21  2  0  0  0  0
 10 13  1  0  0  0  0
  1 10  1  0  0  0  0
 12 22  1  0  0  0  0
 11 22  1  0  0  0  0
  1 11  2  0  0  0  0
  1 14  1  0  0  0  0
  9 11  1  0  0  0  0
 14 15  2  0  0  0  0
  9 16  2  0  0  0  0
 15 16  1  0  0  0  0
 15 23  1  0  0  0  0
  3 24  1  0  0  0  0
  4 25  1  0  0  0  0
  5 26  1  0  0  0  0
  6 27  1  0  0  0  0
  7 28  1  0  0  0  0
  8 29  1  0  0  0  0
  9 30  1  0  0  0  0
 10 31  1  0  0  0  0
 10 32  1  0  0  0  0
 12 33  1  0  0  0  0
 12 34  1  0  0  0  0
 12 35  1  0  0  0  0
 14 36  1  0  0  0  0
 16 37  1  0  0  0  0
 20 38  1  0  0  0  0
M  END
> <OPENEYE_ISO_SMILES>
COc1ccc(cc1CC(=O)Nc2cncc3c2cccc3)Cl

> <OPENEYE_INCHI>
InChI=1S/C18H15ClN2O2/c1-23-17-7-6-14(19)8-13(17)9-18(22)21-16-11-20-10-12-4-2-3-5-15(12)16/h2-8,10-11H,9H2,1H3,(H,21,22)

> <OPENEYE_INCHIKEY>
UFUGOWGYSILVPI-UHFFFAOYSA-N

> <FORMULA>
C18H15ClN2O2

$$$$
