GBS
  -OEChem-02242320023D

 22 22  0     0  0  0  0  0  0999 V2000
   -0.9960   -0.5230   -0.2440 C   0  0  0  0  0  0  0  0  0  0  0  0
   -0.4810    0.7540   -0.4470 C   0  0  0  0  0  0  0  0  0  0  0  0
    0.8740    0.9740   -0.3470 C   0  0  0  0  0  0  0  0  0  0  0  0
    3.1840    0.1470    0.0680 C   0  0  0  0  0  0  0  0  0  0  0  0
   -0.1450   -1.5800    0.0660 C   0  0  0  0  0  0  0  0  0  0  0  0
   -2.8120    1.2410    0.7750 N   0  0  0  0  0  0  0  0  0  0  0  0
    1.7330   -0.0860   -0.0410 C   0  0  0  0  0  0  0  0  0  0  0  0
   -3.2530    0.1980    0.1310 C   0  0  0  0  0  0  0  0  0  0  0  0
    3.9290   -0.7740    0.3400 O   0  0  0  0  0  0  0  0  0  0  0  0
   -2.3680   -0.7430   -0.3460 N   0  0  0  0  0  0  0  0  0  0  0  0
   -4.6040    0.0370   -0.0730 N   0  0  0  0  0  0  0  0  0  0  0  0
    1.2110   -1.3660    0.1680 C   0  0  0  0  0  0  0  0  0  0  0  0
    3.6860    1.3820   -0.1340 O   0  0  0  0  0  0  0  0  0  0  0  0
   -1.1450    1.5720   -0.6840 H   0  0  0  0  0  0  0  0  0  0  0  0
    1.2730    1.9650   -0.5060 H   0  0  0  0  0  0  0  0  0  0  0  0
   -0.5490   -2.5680    0.2270 H   0  0  0  0  0  0  0  0  0  0  0  0
   -3.4350    1.9030    1.1110 H   0  0  0  0  0  0  0  0  0  0  0  0
   -2.7000   -1.5590   -0.7530 H   0  0  0  0  0  0  0  0  0  0  0  0
   -5.2270    0.6990    0.2630 H   0  0  0  0  0  0  0  0  0  0  0  0
   -4.9330   -0.7400   -0.5520 H   0  0  0  0  0  0  0  0  0  0  0  0
    1.8700   -2.1860    0.4100 H   0  0  0  0  0  0  0  0  0  0  0  0
    4.6430    1.4850   -0.0520 H   0  0  0  0  0  0  0  0  0  0  0  0
  4  9  2  0  0  0  0
  4  7  1  0  0  0  0
  7 12  2  0  0  0  0
  3  7  1  0  0  0  0
  5 12  1  0  0  0  0
  2  3  2  0  0  0  0
  1  5  2  0  0  0  0
  1  2  1  0  0  0  0
  1 10  1  0  0  0  0
  8 10  1  0  0  0  0
  6  8  2  0  0  0  0
  8 11  1  0  0  0  0
  4 13  1  0  0  0  0
  2 14  1  0  0  0  0
  3 15  1  0  0  0  0
  5 16  1  0  0  0  0
  6 17  1  0  0  0  0
 10 18  1  0  0  0  0
 11 19  1  0  0  0  0
 11 20  1  0  0  0  0
 12 21  1  0  0  0  0
 13 22  1  0  0  0  0
M  END
> <OPENEYE_ISO_SMILES>
[H]/N=C(\N)/Nc1ccc(cc1)C(=O)O

> <OPENEYE_INCHI>
InChI=1S/C8H9N3O2/c9-8(10)11-6-3-1-5(2-4-6)7(12)13/h1-4H,(H,12,13)(H4,9,10,11)

> <OPENEYE_INCHIKEY>
SXTSBZBQQRIYCU-UHFFFAOYSA-N

> <FORMULA>
C8H9N3O2

$$$$
