@<TRIPOS>MOLECULE
/home/pku/3cl/gett_pdb/8E65/8E65_mol2/ligand/8E65_WF5.pdb
 34 35 0 0 0
SMALL
GASTEIGER

@<TRIPOS>ATOM
      1  C02        4.7640    6.6750   25.0010 C.ar  401  WF5401      0.0579
      2  C04        5.2860    8.3470   23.2620 C.ar  401  WF5401      0.0378
      3  C05        6.1160    6.2910   25.0550 C.ar  401  WF5401      0.0145
      4  C06        7.0600    6.9320   24.2200 C.ar  401  WF5401      0.0378
      5  C07        6.6400    7.9740   23.3370 C.ar  401  WF5401      0.1384
      6  C10        8.4360    9.8900   24.4710 C.3   401  WF5401      0.0475
      7  C11        7.6280   11.1210   22.4240 C.3   401  WF5401      0.0475
      8  C12        9.7580    9.7050   22.2910 C.3   401  WF5401      0.2496
      9  C14       10.3220    7.3220   22.0810 C.2   401  WF5401      0.4216
     10  C16       10.8110    4.8820   22.0510 C.3   401  WF5401      0.1761
     11  C18       12.9180    4.2690   23.3300 C.3   401  WF5401      0.0022
     12  C19       13.5690    3.1710   24.2010 C.3   401  WF5401      0.0001
     13  C20       13.7810    4.5760   22.1060 C.3   401  WF5401      0.0001
     14  C23        7.8250    3.4890   19.9760 C.3   401  WF5401      0.1287
     15  C24        7.3860    4.4400   18.7880 C.3   401  WF5401      0.0335
     16  C26        6.7930    6.6260   18.0030 C.2   401  WF5401      0.2410
     17  C29        5.9300    6.1090   20.1900 C.3   401  WF5401      0.0326
     18  C31        7.9520    1.9740   19.6380 C.3   401  WF5401      0.2036
     19  O33        8.4810    4.5370   22.4870 O.2   401  WF5401     -0.2715
     20  O34       10.0850    7.3530   20.9080 O.2   401  WF5401     -0.2245
     21  C03        4.3450    7.7020   24.0970 C.ar  401  WF5401      0.0145
     22  C09        8.2970    9.8450   22.9200 C.3   401  WF5401      0.1734
     23  C17       11.4860    3.8220   22.8400 C.3   401  WF5401      0.0312
     24  C21        9.3860    4.4470   21.7030 C.2   401  WF5401      0.2614
     25  C25        7.1690    5.9500   19.0980 C.3   401  WF5401      0.0818
     26  C28        5.4070    7.3150   19.9800 C.3   401  WF5401      0.1156
     27  N15       10.6760    6.1010   22.8080 N.am  401  WF5401     -0.1611
     28  N22        9.1470    3.9030   20.3530 N.am  401  WF5401     -0.2030
     29  N27        5.6050    7.5840   18.4410 N.am  401  WF5401     -0.2054
     30  O08        7.5990    8.6340   22.4550 O.3   401  WF5401     -0.4789
     31  O13       10.2660    8.5330   22.8890 O.3   401  WF5401     -0.4297
     32  O30        7.2330    6.5470   16.8660 O.2   401  WF5401     -0.2734
     33  O32        6.6940    1.3380   19.3200 O.3   401  WF5401     -0.2185
     34 CL01        3.5750    5.8630   26.0570 Cl    401  WF5401     -0.0822
@<TRIPOS>BOND
     1    32    16    2
     2    16    29   am
     3    16    25    1
     4    29    26    1
     5    15    25    1
     6    15    14    1
     7    25    17    1
     8    33    18    1
     9    18    14    1
    10    14    28    1
    11    26    17    1
    12    28    24   am
    13    20     9    2
    14    24    10    1
    15    24    19    2
    16    10    27    1
    17    10    23    1
    18     9    27   am
    19     9    31    1
    20    13    11    1
    21     8    31    1
    22     8    22    1
    23     7    22    1
    24    30    22    1
    25    30     5    1
    26    23    11    1
    27    22     6    1
    28     2     5   ar
    29     2    21   ar
    30    11    12    1
    31     5     4   ar
    32    21     1   ar
    33     4     3   ar
    34     1     3   ar
    35     1    34    1
