@<TRIPOS>MOLECULE
/home/pku/3cl/gett_pdb/5SPO/5SPO_mol2/ligand/5SPO_S5F.pdb
 39 42 0 0 0
SMALL
GASTEIGER

@<TRIPOS>ATOM
      1  C18      -21.8730    5.3330   20.8120 C.ar  201  S5F201      0.1196
      2  C20      -20.2960    5.0830   13.1360 C.ar  201  S5F201      0.3486
      3  C10      -24.6810    8.9290   17.6470 C.3   201  S5F201     -0.0456
      4  C11      -26.0910    8.5290   18.0710 C.3   201  S5F201     -0.0519
      5  C15      -21.0140    6.9230   19.6200 C.ar  201  S5F201      0.1196
      6  C13      -23.4570    6.3640   19.1830 C.3   201  S5F201      0.0304
      7  C12      -26.0170    7.3260   17.1460 C.3   201  S5F201     -0.0456
      8  C02      -21.3700    7.1660   12.1030 C.ar  201  S5F201      0.1138
      9  C03      -22.2510    7.2910   13.3120 C.ar  201  S5F201      0.0135
     10  C04      -22.1460    6.3020   14.4170 C.ar  201  S5F201      0.1295
     11  C06      -23.1550    5.6360   16.8890 C.3   201  S5F201      0.0185
     12  C07      -23.2340    6.7140   17.7050 C.3   201  S5F201     -0.0001
     13  C08      -24.5010    7.5350   17.0490 C.3   201  S5F201     -0.0076
     14  C09      -24.1170    7.6440   15.7600 C.3   201  S5F201      0.0195
     15  N05      -23.0380    6.4800   15.5680 N.pl3 201  S5F201     -0.3141
     16  N14      -22.1580    6.2150   19.8490 N.ar  201  S5F201     -0.3196
     17  N16      -20.0730    6.4730   20.4220 N.ar  201  S5F201     -0.1382
     18  N17      -20.6030    5.4820   21.1700 N.ar  201  S5F201     -0.1382
     19  N19      -21.1770    5.2080   14.3450 N.ar  201  S5F201     -0.1781
     20  N21      -20.4040    6.0660   12.0290 N.ar  201  S5F201     -0.2968
     21  O22      -19.4960    4.1790   13.0640 O.2   201  S5F201     -0.2446
     22 CL01      -21.4990    8.3460   10.7740 Cl    201  S5F201     -0.0638
     23 H181      -22.5830    4.6010   21.2300 H     201  S5F201      0.1048
     24 H101      -24.6740    9.7430   16.9000 H     201  S5F201      0.0271
     25 H102      -24.0280    9.1010   18.4950 H     201  S5F201      0.0271
     26 H111      -26.1480    8.2470   19.1140 H     201  S5F201      0.0266
     27 H112      -26.8450    9.2520   17.7720 H     201  S5F201      0.0266
     28 H151      -20.9030    7.7160   18.8890 H     201  S5F201      0.1048
     29 H132      -23.9700    5.4040   19.2090 H     201  S5F201      0.0496
     30 H131      -24.0730    7.1290   19.6810 H     201  S5F201      0.0496
     31 H122      -26.2860    6.3840   17.6580 H     201  S5F201      0.0271
     32 H121      -26.5640    7.4870   16.2020 H     201  S5F201      0.0271
     33 H031      -22.9670    8.0970   13.3920 H     201  S5F201      0.0682
     34 H062      -22.2460    5.0550   17.0780 H     201  S5F201      0.0468
     35 H061      -24.0510    5.0220   16.9090 H     201  S5F201      0.0468
     36 H071      -22.3300    7.3280   17.5610 H     201  S5F201      0.0339
     37 H091      -24.9440    7.5130   15.0690 H     201  S5F201      0.0470
     38 H092      -23.6220    8.6040   15.5980 H     201  S5F201      0.0470
     39 H211      -19.8040    5.9810   11.2100 H     201  S5F201      0.1713
@<TRIPOS>BOND
     1    22     8    1
     2    39    20    1
     3    20     8   ar
     4    20     2   ar
     5     8     9   ar
     6    21     2    2
     7     2    19   ar
     8     9    33    1
     9     9    10   ar
    10    19    10   ar
    11    10    15    1
    12    37    14    1
    13    15    14    1
    14    15    11    1
    15    38    14    1
    16    14    13    1
    17    32     7    1
    18    11    35    1
    19    11    34    1
    20    11    12    1
    21    24     3    1
    22    13     7    1
    23    13     3    1
    24    13    12    1
    25     7    31    1
    26     7     4    1
    27    36    12    1
    28     3     4    1
    29     3    25    1
    30    12     6    1
    31    27     4    1
    32     4    26    1
    33    28     5    1
    34     6    29    1
    35     6    30    1
    36     6    16    1
    37     5    16   ar
    38     5    17   ar
    39    16     1   ar
    40    17    18   ar
    41     1    18   ar
    42     1    23    1
