@<TRIPOS>MOLECULE
/home/pku/3cl/gett_pdb/7RMT/7RMT_mol2/ligand/7RMT_5ZN.pdb
 25 27 0 0 0
SMALL
GASTEIGER

@<TRIPOS>ATOM
      1  C8       107.0540   -1.0610  110.2970 C.3   401  5ZN401      0.1123
      2  C9       108.4630   -1.5100  110.6740 C.3   401  5ZN401      0.1152
      3  C1       110.4610   -3.7400  108.3040 C.ar  401  5ZN401      0.1442
      4  C10      104.7640   -1.9680  110.4200 C.ar  401  5ZN401      0.0488
      5  C11      104.2740   -1.0850  111.4190 C.ar  401  5ZN401      0.0147
      6  C12      102.9220   -0.8720  111.5720 C.ar  401  5ZN401      0.0054
      7  C13      102.4570   -2.3750  109.7820 C.ar  401  5ZN401      0.0621
      8  C14      103.8060   -2.6150  109.5970 C.ar  401  5ZN401      0.0260
      9  C16      111.6360   -5.8550  108.4900 C.ar  401  5ZN401      0.3715
     10  C19      110.6630   -5.1300  106.3260 C.ar  401  5ZN401      0.2848
     11  C2       110.0510   -2.5530  109.1380 C.2   401  5ZN401      0.2672
     12  C21      110.1990   -3.9230  106.9870 C.ar  401  5ZN401      0.0865
     13  C22      101.9570   -1.5030  110.7660 C.ar  401  5ZN401      0.0529
     14  C23      100.5400   -1.2310  110.9850 C.2   401  5ZN401      0.2350
     15  C5       107.9760   -3.7670  109.8850 C.3   401  5ZN401      0.1152
     16  C6       106.5890   -3.3260  109.4400 C.3   401  5ZN401      0.1123
     17  N15      111.1550   -4.6810  109.0230 N.ar  401  5ZN401     -0.1860
     18  N18      111.3590   -6.0180  107.1470 N.ar  401  5ZN401     -0.1517
     19  N4       108.9040   -2.6330  109.8410 N.am  401  5ZN401     -0.2713
     20  N7       106.1160   -2.1930  110.2560 N.pl3 401  5ZN401     -0.3040
     21  O17      112.2540   -6.6750  109.1580 O.2   401  5ZN401     -0.2425
     22  O20      110.4840   -5.4000  105.1350 O.2   401  5ZN401     -0.2650
     23  O24      100.1100   -0.5420  111.9130 O.2   401  5ZN401     -0.2831
     24  O3       110.8050   -1.5670  109.1370 O.2   401  5ZN401     -0.2682
     25 CL25      101.3350   -3.2220  108.7110 Cl    401  5ZN401     -0.0821
@<TRIPOS>BOND
     1    22    10    2
     2    10    12   ar
     3    10    18   ar
     4    12     3   ar
     5    18     9   ar
     6     3    17   ar
     7     3    11    1
     8     9    17   ar
     9     9    21    2
    10    25     7    1
    11    24    11    2
    12    11    19   am
    13    16    15    1
    14    16    20    1
    15     8     7   ar
    16     8     4   ar
    17     7    13   ar
    18    19    15    1
    19    19     2    1
    20    20     1    1
    21    20     4    1
    22     1     2    1
    23     4     5   ar
    24    13    14    1
    25    13     6   ar
    26    14    23    2
    27     5     6   ar
