@<TRIPOS>MOLECULE
/home/pku/3cl/gett_pdb/5S3F/5S3F_mol2/ligand/5S3F_W1J.pdb
 16 17 0 0 0
SMALL
GASTEIGER

@<TRIPOS>ATOM
      1  N1         0.7200   11.0130   -7.1790 N.pl3 501  W1J501     -0.0170
      2  N3         1.9620   10.6350  -10.3720 N.am  501  W1J501     -0.1012
      3  C4         2.7030    9.7450  -11.1120 C.2   501  W1J501      0.3128
      4  C5         3.1030   10.2260  -12.4480 C.ar  501  W1J501      0.2012
      5  C6         2.7840   11.3360  -13.1500 C.ar  501  W1J501      0.0455
      6  C7         3.6390   11.3690  -14.2680 C.ar  501  W1J501      0.0440
      7  C8         4.4110   10.3000  -14.1950 C.ar  501  W1J501      0.1798
      8  O          3.0260    8.6260  -10.7060 O.2   501  W1J501     -0.2639
      9  O1         4.1110    9.5590  -13.0820 O.2   501  W1J501     -0.4457
     10  N4         1.0330    9.3340   -8.6050 N.2   501  W1J501     -0.0900
     11  C3         1.4690   10.4830   -9.0940 C.1   501  W1J501      0.1533
     12  N2         1.3090   11.5180   -8.2380 N.2   501  W1J501     -0.0701
     13  N          0.5800    9.7200   -7.4170 N.pl3 501  W1J501     -0.1138
     14  C2         0.0020    8.7930   -6.4460 C.3   501  W1J501      0.1378
     15  C1        -1.2300    8.1280   -6.9780 C.3   501  W1J501      0.0253
     16  C         -2.2360    9.1160   -7.3350 C.3   501  W1J501      0.0019
@<TRIPOS>BOND
     1     6     7   ar
     2     6     5   ar
     3     7     9   ar
     4     5     4   ar
     5     9     4   ar
     6     4     3    1
     7     3     8    2
     8     3     2   am
     9     2    11    1
    10    11    10    2
    11    11    12    2
    12    10    13    1
    13    12     1    1
    14    13     1    1
    15    13    14    1
    16    16    15    1
    17    15    14    1
