@<TRIPOS>MOLECULE
/home/pku/3cl/gett_pdb/7LMF/7LMF_mol2/ligand/7LMF_Y6G.pdb
 30 34 0 0 0
SMALL
GASTEIGER

@<TRIPOS>ATOM
      1  O01       13.1840   -2.3080   41.8440 O.2   401  Y6G401     -0.2723
      2  C02       13.9110   -1.3760   41.7730 C.2   401  Y6G401      0.2545
      3  C03       13.6560   -0.3030   40.7150 C.3   401  Y6G401      0.2141
      4  N04       12.6660   -0.8530   39.8100 N.ar  401  Y6G401     -0.2223
      5  C05       12.9120   -1.6100   38.6940 C.ar  401  Y6G401      0.0994
      6  C06       14.0800   -2.0800   38.0530 C.ar  401  Y6G401      0.0204
      7  C07       13.9720   -2.8490   36.8870 C.ar  401  Y6G401      0.0016
      8  C08       12.7120   -3.1670   36.3530 C.ar  401  Y6G401      0.0017
      9  C09       11.5580   -2.7130   36.9900 C.ar  401  Y6G401      0.0225
     10  C10       11.6620   -1.9290   38.1600 C.ar  401  Y6G401      0.1217
     11  N11       10.7250   -1.3590   38.9820 N.ar  401  Y6G401     -0.1288
     12  N12       11.3510   -0.7190   39.9770 N.ar  401  Y6G401     -0.0634
     13  N13       15.0400   -1.2910   42.6830 N.am  401  Y6G401     -0.2527
     14  C14       15.2530   -2.3210   43.6940 C.3   401  Y6G401      0.1253
     15  C15       14.5460   -1.8810   44.9800 C.ar  401  Y6G401      0.0050
     16  C16       13.6310   -0.7660   45.0720 C.ar  401  Y6G401      0.0328
     17  S17       13.0760   -0.5970   46.5860 S.2   401  Y6G401     -0.0862
     18  C18       13.8660   -1.8270   47.3020 C.ar  401  Y6G401      0.0352
     19  C19       14.6840   -2.5310   46.3530 C.ar  401  Y6G401      0.0049
     20  C20       15.9240   -0.1450   42.6380 C.ar  401  Y6G401      0.0542
     21  C21       17.1610   -0.1730   42.0160 C.ar  401  Y6G401      0.0149
     22  C22       17.9500    0.9670   42.0270 C.ar  401  Y6G401      0.0025
     23  C23       17.4870    2.1140   42.6630 C.ar  401  Y6G401      0.0156
     24  C24       18.2960    3.4020   42.7260 C.2   401  Y6G401      0.0853
     25  C25       17.9330    4.4970   43.4460 C.3   401  Y6G401      0.1726
     26  N26       18.8650    5.3960   43.2720 N.2   401  Y6G401     -0.2436
     27  C27       19.8040    4.8930   42.4630 C.2   401  Y6G401      0.1943
     28  N28       19.4420    3.6470   42.1270 N.2   401  Y6G401     -0.2267
     29  C29       16.2570    2.1300   43.2830 C.ar  401  Y6G401      0.0025
     30  C30       15.4790    0.9960   43.2670 C.ar  401  Y6G401      0.0149
@<TRIPOS>BOND
     1     8     7   ar
     2     8     9   ar
     3     7     6   ar
     4     9    10   ar
     5     6     5   ar
     6    10     5   ar
     7    10    11   ar
     8     5     4   ar
     9    11    12   ar
    10     4    12   ar
    11     4     3    1
    12     3     2    1
    13     2     1    2
    14     2    13   am
    15    21    22   ar
    16    21    20   ar
    17    22    23   ar
    18    28    27    1
    19    28    24    2
    20    27    26    2
    21    20    13    1
    22    20    30   ar
    23    23    24    1
    24    23    29   ar
    25    13    14    1
    26    24    25    1
    27    30    29   ar
    28    26    25    1
    29    14    15    1
    30    15    16   ar
    31    15    19   ar
    32    16    17   ar
    33    19    18   ar
    34    17    18   ar
