UQZ
  -OEChem-02242320043D

 53 55  0     1  0  0  0  0  0999 V2000
   -5.1340   -2.5370   -2.4640 C   0  0  0  0  0  0  0  0  0  0  0  0
   -0.7500   -0.6830    1.7470 O   0  0  0  0  0  0  0  0  0  0  0  0
    6.1490   -1.4350   -0.9930 O   0  0  0  0  0  0  0  0  0  0  0  0
   -2.0810   -2.4150    0.3380 C   0  0  0  0  0  0  0  0  0  0  0  0
   -3.0080   -2.3410    1.5540 C   0  0  0  0  0  0  0  0  0  0  0  0
   -2.8490   -3.6100    2.3940 C   0  0  0  0  0  0  0  0  0  0  0  0
   -1.4860   -0.0640   -0.4080 C   0  0  1  0  0  0  0  0  0  0  0  0
   -0.4310   -0.2940    0.6430 C   0  0  0  0  0  0  0  0  0  0  0  0
    1.8910   -0.2920    1.3800 C   0  0  0  0  0  0  0  0  0  0  0  0
    3.2490    0.0320    0.8100 C   0  0  0  0  0  0  0  0  0  0  0  0
    3.7520    1.3150    0.9150 C   0  0  0  0  0  0  0  0  0  0  0  0
    4.9970    1.6170    0.3940 C   0  0  0  0  0  0  0  0  0  0  0  0
    5.7420    0.6330   -0.2350 C   0  0  0  0  0  0  0  0  0  0  0  0
   -4.1550   -2.4990   -1.5650 C   0  0  0  0  0  0  0  0  0  0  0  0
   -3.3150   -1.2980   -1.4420 C   0  0  0  0  0  0  0  0  0  0  0  0
    5.2350   -0.6600   -0.3400 C   0  0  0  0  0  0  0  0  0  0  0  0
    3.9870   -0.9550    0.1840 C   0  0  0  0  0  0  0  0  0  0  0  0
   -3.5150   -0.3400   -2.1630 O   0  0  0  0  0  0  0  0  0  0  0  0
   -2.3230   -1.2600   -0.5300 N   0  0  0  0  0  0  0  0  0  0  0  0
    0.8660   -0.0680    0.3580 N   0  0  0  0  0  0  0  0  0  0  0  0
    7.3890   -0.7070   -0.9260 C   0  0  0  0  0  0  0  0  0  0  0  0
    6.9740    0.6680   -0.8220 O   0  0  0  0  0  0  0  0  0  0  0  0
   -2.3430    1.1110   -0.0120 C   0  0  0  0  0  0  0  0  0  0  0  0
   -3.3530    0.9460    0.9180 C   0  0  0  0  0  0  0  0  0  0  0  0
   -4.1400    2.0220    1.2840 C   0  0  0  0  0  0  0  0  0  0  0  0
   -3.9200    3.2640    0.7210 C   0  0  0  0  0  0  0  0  0  0  0  0
   -2.9070    3.4320   -0.2120 C   0  0  0  0  0  0  0  0  0  0  0  0
   -2.6880    4.6530   -0.7670 O   0  0  0  0  0  0  0  0  0  0  0  0
   -2.1150    2.3520   -0.5730 C   0  0  0  0  0  0  0  0  0  0  0  0
   -5.3120   -1.6850   -3.1050 H   0  0  0  0  0  0  0  0  0  0  0  0
   -5.7480   -3.4200   -2.5570 H   0  0  0  0  0  0  0  0  0  0  0  0
   -1.0440   -2.4080    0.6720 H   0  0  0  0  0  0  0  0  0  0  0  0
   -2.2800   -3.3330   -0.2150 H   0  0  0  0  0  0  0  0  0  0  0  0
   -2.7480   -1.4710    2.1560 H   0  0  0  0  0  0  0  0  0  0  0  0
   -4.0410   -2.2550    1.2180 H   0  0  0  0  0  0  0  0  0  0  0  0
   -3.1090   -4.4800    1.7910 H   0  0  0  0  0  0  0  0  0  0  0  0
   -1.8150   -3.6960    2.7300 H   0  0  0  0  0  0  0  0  0  0  0  0
   -3.5090   -3.5570    3.2600 H   0  0  0  0  0  0  0  0  0  0  0  0
   -1.0060    0.1430   -1.3650 H   0  0  0  0  0  0  0  0  0  0  0  0
    1.8690   -1.3350    1.6950 H   0  0  0  0  0  0  0  0  0  0  0  0
    1.6950    0.3510    2.2380 H   0  0  0  0  0  0  0  0  0  0  0  0
    3.1720    2.0830    1.4050 H   0  0  0  0  0  0  0  0  0  0  0  0
    5.3880    2.6200    0.4770 H   0  0  0  0  0  0  0  0  0  0  0  0
   -3.9770   -3.3500   -0.9240 H   0  0  0  0  0  0  0  0  0  0  0  0
    3.5910   -1.9560    0.1040 H   0  0  0  0  0  0  0  0  0  0  0  0
    1.1220    0.2430   -0.5250 H   0  0  0  0  0  0  0  0  0  0  0  0
    7.9580   -1.0020   -0.0450 H   0  0  0  0  0  0  0  0  0  0  0  0
    7.9750   -0.8630   -1.8320 H   0  0  0  0  0  0  0  0  0  0  0  0
   -3.5270   -0.0240    1.3590 H   0  0  0  0  0  0  0  0  0  0  0  0
   -4.9290    1.8900    2.0110 H   0  0  0  0  0  0  0  0  0  0  0  0
   -4.5360    4.1040    1.0080 H   0  0  0  0  0  0  0  0  0  0  0  0
   -2.0590    5.2000   -0.2780 H   0  0  0  0  0  0  0  0  0  0  0  0
   -1.3230    2.4810   -1.2960 H   0  0  0  0  0  0  0  0  0  0  0  0
  3 21  1  0  0  0  0
  3 16  1  0  0  0  0
 21 22  1  0  0  0  0
  1 14  2  0  0  0  0
 13 22  1  0  0  0  0
 16 17  2  0  0  0  0
 13 16  1  0  0  0  0
 14 15  1  0  0  0  0
 10 17  1  0  0  0  0
 15 18  2  0  0  0  0
 12 13  2  0  0  0  0
  5  6  1  0  0  0  0
 15 19  1  0  0  0  0
  9 10  1  0  0  0  0
 10 11  2  0  0  0  0
 11 12  1  0  0  0  0
  2  8  2  0  0  0  0
  4 19  1  0  0  0  0
  7 19  1  0  0  0  0
  9 20  1  0  0  0  0
  4  5  1  0  0  0  0
  8 20  1  0  0  0  0
  7  8  1  0  0  0  0
  7 23  1  0  0  0  0
 23 29  2  0  0  0  0
 23 24  1  0  0  0  0
 27 29  1  0  0  0  0
 24 25  2  0  0  0  0
 27 28  1  0  0  0  0
 26 27  2  0  0  0  0
 25 26  1  0  0  0  0
  1 30  1  0  0  0  0
  1 31  1  0  0  0  0
  4 32  1  0  0  0  0
  4 33  1  0  0  0  0
  5 34  1  0  0  0  0
  5 35  1  0  0  0  0
  6 36  1  0  0  0  0
  6 37  1  0  0  0  0
  6 38  1  0  0  0  0
  7 39  1  0  0  0  0
  9 40  1  0  0  0  0
  9 41  1  0  0  0  0
 11 42  1  0  0  0  0
 12 43  1  0  0  0  0
 14 44  1  0  0  0  0
 17 45  1  0  0  0  0
 20 46  1  0  0  0  0
 21 47  1  0  0  0  0
 21 48  1  0  0  0  0
 24 49  1  0  0  0  0
 25 50  1  0  0  0  0
 26 51  1  0  0  0  0
 28 52  1  0  0  0  0
 29 53  1  0  0  0  0
M  END
> <OPENEYE_ISO_SMILES>
CCCN([C@@H](c1cccc(c1)O)C(=O)NCc2ccc3c(c2)OCO3)C(=O)C=C

> <OPENEYE_INCHI>
InChI=1S/C22H24N2O5/c1-3-10-24(20(26)4-2)21(16-6-5-7-17(25)12-16)22(27)23-13-15-8-9-18-19(11-15)29-14-28-18/h4-9,11-12,21,25H,2-3,10,13-14H2,1H3,(H,23,27)/t21-/m0/s1

> <OPENEYE_INCHIKEY>
BMXUYKHPBOFWRQ-NRFANRHFSA-N

> <FORMULA>
C22H24N2O5

$$$$
