RQ8
  -OEChem-02242320043D

 39 40  0     1  0  0  0  0  0999 V2000
   -3.8680    1.2290    1.5260 C   0  0  0  0  0  0  0  0  0  0  0  0
   -3.2220    1.3370    0.3080 C   0  0  0  0  0  0  0  0  0  0  0  0
   -2.8250    0.1830   -0.3510 C   0  0  0  0  0  0  0  0  0  0  0  0
   -3.0930   -1.0410    0.2420 C   0  0  0  0  0  0  0  0  0  0  0  0
   -2.6820   -2.3230   -0.4350 C   0  0  0  0  0  0  0  0  0  0  0  0
   -0.9060   -4.0490   -0.5640 C   0  0  0  0  0  0  0  0  0  0  0  0
   -3.7430   -1.0710    1.4620 C   0  0  0  0  0  0  0  0  0  0  0  0
    5.0300    1.9770    1.6790 C   0  0  0  0  0  0  0  0  0  0  0  0
    5.2100    0.9130    0.5950 C   0  0  0  0  0  0  0  0  0  0  0  0
    3.8900    0.6630   -0.0890 C   0  0  0  0  0  0  0  0  0  0  0  0
    3.0250   -0.3030    0.3940 C   0  0  0  0  0  0  0  0  0  0  0  0
    1.8110   -0.5000   -0.2740 C   0  0  0  0  0  0  0  0  0  0  0  0
    0.8490   -1.5180    0.1980 C   0  0  0  0  0  0  0  0  0  0  0  0
   -1.2710   -2.7070    0.0150 C   0  0  1  0  0  0  0  0  0  0  0  0
    1.5230    0.2820   -1.3940 C   0  0  0  0  0  0  0  0  0  0  0  0
    3.5290    1.4000   -1.2020 C   0  0  0  0  0  0  0  0  0  0  0  0
    6.1450    1.3580   -0.3460 F   0  0  0  0  0  0  0  0  0  0  0  0
    5.6650   -0.2750    1.1780 F   0  0  0  0  0  0  0  0  0  0  0  0
   -0.3170   -1.6970   -0.4530 N   0  0  0  0  0  0  0  0  0  0  0  0
   -4.1010    0.0470    2.0630 N   0  0  0  0  0  0  0  0  0  0  0  0
    2.3800    1.1890   -1.8150 N   0  0  0  0  0  0  0  0  0  0  0  0
   -1.6460   -5.1300   -0.2700 O   0  0  0  0  0  0  0  0  0  0  0  0
    0.0520   -4.1530   -1.2940 O   0  0  0  0  0  0  0  0  0  0  0  0
    1.1090   -2.1930    1.1750 O   0  0  0  0  0  0  0  0  0  0  0  0
   -2.8860    3.0370   -0.4490 Br  0  0  0  0  0  0  0  0  0  0  0  0
   -4.1800    2.1220    2.0470 H   0  0  0  0  0  0  0  0  0  0  0  0
   -2.3190    0.2370   -1.3040 H   0  0  0  0  0  0  0  0  0  0  0  0
   -3.3780   -3.1160   -0.1640 H   0  0  0  0  0  0  0  0  0  0  0  0
   -2.6930   -2.1830   -1.5160 H   0  0  0  0  0  0  0  0  0  0  0  0
   -3.9520   -2.0200    1.9320 H   0  0  0  0  0  0  0  0  0  0  0  0
    4.6750    2.9020    1.2240 H   0  0  0  0  0  0  0  0  0  0  0  0
    4.3010    1.6300    2.4110 H   0  0  0  0  0  0  0  0  0  0  0  0
    5.9840    2.1580    2.1730 H   0  0  0  0  0  0  0  0  0  0  0  0
    3.2800   -0.8910    1.2640 H   0  0  0  0  0  0  0  0  0  0  0  0
   -1.2380   -2.7600    1.1030 H   0  0  0  0  0  0  0  0  0  0  0  0
    0.5900    0.1420   -1.9200 H   0  0  0  0  0  0  0  0  0  0  0  0
    4.2010    2.1580   -1.5780 H   0  0  0  0  0  0  0  0  0  0  0  0
   -0.5250   -1.1590   -1.2330 H   0  0  0  0  0  0  0  0  0  0  0  0
   -1.3730   -5.9690   -0.6660 H   0  0  0  0  0  0  0  0  0  0  0  0
  8  9  1  0  0  0  0
  9 18  1  0  0  0  0
  9 17  1  0  0  0  0
  9 10  1  0  0  0  0
 10 16  2  0  0  0  0
 10 11  1  0  0  0  0
 16 21  1  0  0  0  0
 11 12  2  0  0  0  0
 15 21  2  0  0  0  0
 12 15  1  0  0  0  0
 12 13  1  0  0  0  0
 13 24  2  0  0  0  0
 13 19  1  0  0  0  0
 14 19  1  0  0  0  0
  7 20  2  0  0  0  0
  4  7  1  0  0  0  0
  1 20  1  0  0  0  0
  5 14  1  0  0  0  0
  4  5  1  0  0  0  0
  6 14  1  0  0  0  0
  3  4  2  0  0  0  0
  1  2  2  0  0  0  0
  6 23  2  0  0  0  0
  6 22  1  0  0  0  0
  2  3  1  0  0  0  0
  2 25  1  0  0  0  0
  1 26  1  0  0  0  0
  3 27  1  0  0  0  0
  5 28  1  0  0  0  0
  5 29  1  0  0  0  0
  7 30  1  0  0  0  0
  8 31  1  0  0  0  0
  8 32  1  0  0  0  0
  8 33  1  0  0  0  0
 11 34  1  0  0  0  0
 14 35  1  0  0  0  0
 15 36  1  0  0  0  0
 16 37  1  0  0  0  0
 19 38  1  0  0  0  0
 22 39  1  0  0  0  0
M  END
> <OPENEYE_ISO_SMILES>
CC(c1cc(cnc1)C(=O)N[C@@H](Cc2cc(cnc2)Br)C(=O)O)(F)F

> <OPENEYE_INCHI>
InChI=1S/C16H14BrF2N3O3/c1-16(18,19)11-4-10(6-21-7-11)14(23)22-13(15(24)25)3-9-2-12(17)8-20-5-9/h2,4-8,13H,3H2,1H3,(H,22,23)(H,24,25)/t13-/m0/s1

> <OPENEYE_INCHIKEY>
SWEUDKUVJIPKFX-ZDUSSCGKSA-N

> <FORMULA>
C16H14BrF2N3O3

$$$$
