@<TRIPOS>MOLECULE
/home/pku/3cl/gett_pdb/2YNB/2YNB_mol2/ligand/2YNB_G85.pdb
 47 49 0 0 0
SMALL
GASTEIGER

@<TRIPOS>ATOM
      1  C17      -19.1300   46.7830   23.0710 C.2   501  G85501      0.4219
      2  O19      -20.1770   47.3610   23.2880 O.2   501  G85501     -0.2245
      3  O15      -19.0210   45.4750   22.7560 O.3   501  G85501     -0.4285
      4  C13      -20.2500   44.6910   22.6640 C.3   501  G85501      0.2368
      5  C4       -19.8580   43.2550   22.8370 C.ar  501  G85501      0.0213
      6  C2       -19.5510   42.4670   21.7380 C.ar  501  G85501     -0.0007
      7  C1       -18.9580   41.2240   21.9050 C.ar  501  G85501     -0.0002
      8  C10      -18.6750   40.7550   23.1670 C.ar  501  G85501     -0.0000
      9  C8       -19.0400   41.4960   24.2670 C.ar  501  G85501     -0.0002
     10  C6       -19.6270   42.7390   24.1050 C.ar  501  G85501     -0.0007
     11  C31      -16.9100   49.3410   22.1970 C.2   501  G85501      0.2643
     12  N21      -17.9110   47.3480   23.1120 N.am  501  G85501     -0.1584
     13  O35      -15.7440   48.9820   22.0490 O.2   501  G85501     -0.2714
     14  C12      -15.7430   48.7140   27.2390 C.3   501  G85501      0.0296
     15  C45      -18.0660   48.1440   27.9570 C.3   501  G85501      0.0296
     16  C43      -16.7340   46.5020   26.6230 C.3   501  G85501      0.0296
     17  C23      -17.7370   48.7730   23.3460 C.3   501  G85501      0.2054
     18  C25      -16.9190   49.0320   24.6020 C.3   501  G85501      0.1730
     19  C29      -17.0150   47.9700   26.8800 C.3   501  G85501      0.0931
     20  O27      -17.6610   48.5320   25.7130 O.3   501  G85501     -0.3562
     21  N33      -17.5060   50.2360   21.3990 N.am  501  G85501     -0.1959
     22  C37      -16.7490   50.9680   20.3910 C.3   501  G85501      0.1771
     23  C39      -15.5930   51.7010   21.0510 C.2   501  G85501      0.2615
     24  O47      -15.7560   52.2750   22.1240 O.2   501  G85501     -0.2715
     25  C41      -17.5870   52.0390   19.6710 C.3   501  G85501      0.0574
     26  C51      -18.7910   51.5310   18.9170 C.ar  501  G85501     -0.0200
     27  C53      -19.8850   52.3570   18.7040 C.ar  501  G85501     -0.0042
     28  C55      -18.8400   50.2320   18.4280 C.ar  501  G85501     -0.0042
     29  C7       -21.0010   51.8950   18.0240 C.ar  501  G85501     -0.0003
     30  C11      -19.9620   49.7690   17.7700 C.ar  501  G85501     -0.0003
     31  C9       -21.0410   50.6050   17.5610 C.ar  501  G85501     -0.0000
     32  O86      -14.3210   56.6340   19.5710 O.3   501  G85501     -0.4485
     33  C3       -14.0910   58.0320   19.2200 C.3   501  G85501      0.2086
     34  C5       -15.0110   58.3250   18.1520 C.3   501  G85501      0.0513
     35  N49      -14.4310   51.6630   20.3980 N.am  501  G85501     -0.2057
     36  C57      -13.2690   52.4400   20.8100 C.3   501  G85501      0.0964
     37  C59      -12.1580   51.5040   21.2810 C.3   501  G85501      0.0309
     38  C61      -12.5620   50.7630   22.5670 C.3   501  G85501      0.0817
     39  C63      -12.8810   53.3010   19.5780 C.3   501  G85501      0.0333
     40  C65      -11.3650   50.0320   23.0280 C.2   501  G85501      0.2410
     41  O66      -10.7210   49.3110   22.2820 O.2   501  G85501     -0.2734
     42  N69      -11.1380   50.2210   24.3300 N.am  501  G85501     -0.2054
     43  C71      -12.1350   51.0660   24.9680 C.3   501  G85501      0.1156
     44  C73      -12.9420   51.6340   23.7860 C.3   501  G85501      0.0326
     45  C82      -13.9550   54.3480   19.3750 C.3   501  G85501      0.1113
     46  C84      -13.4190   55.7340   19.1740 C.2   501  G85501      0.3170
     47  O88      -12.3220   56.0010   18.7520 O.2   501  G85501     -0.2501
@<TRIPOS>BOND
     1    31    30   ar
     2    31    29   ar
     3    30    28   ar
     4    29    27   ar
     5    34    33    1
     6    28    26   ar
     7    27    26   ar
     8    47    46    2
     9    26    25    1
    10    46    45    1
    11    46    32    1
    12    33    32    1
    13    45    39    1
    14    39    36    1
    15    25    22    1
    16    22    23    1
    17    22    21    1
    18    35    36    1
    19    35    23   am
    20    36    37    1
    21    23    24    2
    22    37    38    1
    23    21    11   am
    24     6     7   ar
    25     6     5   ar
    26     7     8   ar
    27    13    11    2
    28    11    17    1
    29    41    40    2
    30    38    40    1
    31    38    44    1
    32     4     3    1
    33     4     5    1
    34     3     1    1
    35     5    10   ar
    36    40    42   am
    37     1    12   am
    38     1     2    2
    39    12    17    1
    40     8     9   ar
    41    17    18    1
    42    44    43    1
    43    10     9   ar
    44    42    43    1
    45    18    20    1
    46    20    19    1
    47    16    19    1
    48    19    14    1
    49    19    15    1
