WXG
  -OEChem-02242320043D

 31 33  0     0  0  0  0  0  0999 V2000
    1.6980    0.0010    0.0530 C   0  0  0  0  0  0  0  0  0  0  0  0
   -4.1400   -0.0340   -0.8490 C   0  0  0  0  0  0  0  0  0  0  0  0
   -5.3480   -0.8540   -0.4510 C   0  0  0  0  0  0  0  0  0  0  0  0
   -5.5380   -0.5450    1.0520 C   0  0  0  0  0  0  0  0  0  0  0  0
   -4.1100   -0.1320    1.4720 C   0  0  0  0  0  0  0  0  0  0  0  0
   -2.2500    1.1740    0.2210 C   0  0  0  0  0  0  0  0  0  0  0  0
   -1.0240    0.2610    0.1560 C   0  0  0  0  0  0  0  0  0  0  0  0
    2.2530   -2.2390   -0.0110 C   0  0  0  0  0  0  0  0  0  0  0  0
    3.9930   -0.7360   -0.0340 C   0  0  0  0  0  0  0  0  0  0  0  0
    5.0480    1.2000   -0.0260 C   0  0  0  0  0  0  0  0  0  0  0  0
    3.0670    0.3190    0.0170 C   0  0  0  0  0  0  0  0  0  0  0  0
   -3.4660    0.3570    0.2460 N   0  0  0  0  0  0  0  0  0  0  0  0
    1.3460   -1.2810    0.0370 N   0  0  0  0  0  0  0  0  0  0  0  0
    3.5450   -1.9880   -0.0470 N   0  0  0  0  0  0  0  0  0  0  0  0
    5.2330   -0.1500   -0.0610 N   0  0  0  0  0  0  0  0  0  0  0  0
    3.7770    1.4730    0.0190 N   0  0  0  0  0  0  0  0  0  0  0  0
   -3.8230    0.2280   -1.9900 O   0  0  0  0  0  0  0  0  0  0  0  0
    0.4780    1.2700    0.1250 S   0  0  0  0  0  0  0  0  0  0  0  0
   -6.2240   -0.5420   -1.0190 H   0  0  0  0  0  0  0  0  0  0  0  0
   -5.1540   -1.9160   -0.6030 H   0  0  0  0  0  0  0  0  0  0  0  0
   -6.2390    0.2780    1.1920 H   0  0  0  0  0  0  0  0  0  0  0  0
   -5.8640   -1.4310    1.5970 H   0  0  0  0  0  0  0  0  0  0  0  0
   -4.1510    0.6600    2.2200 H   0  0  0  0  0  0  0  0  0  0  0  0
   -3.5670   -0.9930    1.8610 H   0  0  0  0  0  0  0  0  0  0  0  0
   -2.2030    1.7830    1.1230 H   0  0  0  0  0  0  0  0  0  0  0  0
   -2.2670    1.8220   -0.6550 H   0  0  0  0  0  0  0  0  0  0  0  0
   -1.0080   -0.3880    1.0320 H   0  0  0  0  0  0  0  0  0  0  0  0
   -1.0710   -0.3480   -0.7460 H   0  0  0  0  0  0  0  0  0  0  0  0
    1.9240   -3.2680   -0.0220 H   0  0  0  0  0  0  0  0  0  0  0  0
    5.8400    1.9340   -0.0350 H   0  0  0  0  0  0  0  0  0  0  0  0
    6.0850   -0.6130   -0.0970 H   0  0  0  0  0  0  0  0  0  0  0  0
  4  5  1  0  0  0  0
  3  4  1  0  0  0  0
  5 12  1  0  0  0  0
  2  3  1  0  0  0  0
  2 12  1  0  0  0  0
  6 12  1  0  0  0  0
  2 17  2  0  0  0  0
  6  7  1  0  0  0  0
  7 18  1  0  0  0  0
  1 18  1  0  0  0  0
  1 13  2  0  0  0  0
  1 11  1  0  0  0  0
 11 16  1  0  0  0  0
 10 16  2  0  0  0  0
  8 13  1  0  0  0  0
  9 11  2  0  0  0  0
 10 15  1  0  0  0  0
  8 14  2  0  0  0  0
  9 14  1  0  0  0  0
  9 15  1  0  0  0  0
  3 19  1  0  0  0  0
  3 20  1  0  0  0  0
  4 21  1  0  0  0  0
  4 22  1  0  0  0  0
  5 23  1  0  0  0  0
  5 24  1  0  0  0  0
  6 25  1  0  0  0  0
  6 26  1  0  0  0  0
  7 27  1  0  0  0  0
  7 28  1  0  0  0  0
  8 29  1  0  0  0  0
 10 30  1  0  0  0  0
 15 31  1  0  0  0  0
M  END
> <OPENEYE_ISO_SMILES>
c1[nH]c2c(n1)c(ncn2)SCCN3CCCC3=O

> <OPENEYE_INCHI>
InChI=1S/C11H13N5OS/c17-8-2-1-3-16(8)4-5-18-11-9-10(13-6-12-9)14-7-15-11/h6-7H,1-5H2,(H,12,13,14,15)

> <OPENEYE_INCHIKEY>
OYAIJZAKIFCNCV-UHFFFAOYSA-N

> <FORMULA>
C11H13N5OS

$$$$
