QWX
  -OEChem-02242320033D

 52 55  0     1  0  0  0  0  0999 V2000
    3.8590   -0.2630   -0.7090 C   0  0  0  0  0  0  0  0  0  0  0  0
    4.4650   -0.3530   -3.0300 C   0  0  0  0  0  0  0  0  0  0  0  0
    3.8830   -0.9350   -1.9200 C   0  0  0  0  0  0  0  0  0  0  0  0
    5.0250    0.9060   -2.9350 C   0  0  0  0  0  0  0  0  0  0  0  0
    5.0020    1.5830   -1.7250 C   0  0  0  0  0  0  0  0  0  0  0  0
    4.4180    0.9960   -0.6100 C   0  0  0  0  0  0  0  0  0  0  0  0
    4.2650    1.5140    0.8040 C   0  0  0  0  0  0  0  0  0  0  0  0
   -0.9820   -0.1250    0.5810 C   0  0  0  0  0  0  0  0  0  0  0  0
   -1.2470   -2.4200   -0.1560 C   0  0  0  0  0  0  0  0  0  0  0  0
   -0.4150   -1.3480    0.2070 C   0  0  0  0  0  0  0  0  0  0  0  0
    1.0480   -1.5100    0.1930 C   0  0  0  0  0  0  0  0  0  0  0  0
    3.2960   -0.6810    0.6330 C   0  0  1  0  0  0  0  0  0  0  0  0
    3.9470    0.2690    1.6580 C   0  0  2  0  0  0  0  0  0  0  0  0
    2.9830    0.6100    2.7650 C   0  0  0  0  0  0  0  0  0  0  0  0
   -2.3390    0.0240    0.5980 C   0  0  0  0  0  0  0  0  0  0  0  0
   -3.1690   -1.0380    0.2450 C   0  0  0  0  0  0  0  0  0  0  0  0
   -5.0970    0.3110   -0.0780 C   0  0  0  0  0  0  0  0  0  0  0  0
   -7.0280    1.7320   -0.5150 C   0  0  0  0  0  0  0  0  0  0  0  0
   -8.1940    1.7130   -1.5050 C   0  0  0  0  0  0  0  0  0  0  0  0
   -8.4480    2.0260   -0.0290 C   0  0  0  0  0  0  0  0  0  0  0  0
   -2.6250   -2.2580   -0.1290 C   0  0  0  0  0  0  0  0  0  0  0  0
   -0.6950   -3.6380   -0.5290 N   0  0  0  0  0  0  0  0  0  0  0  0
    1.8400   -0.5190    0.6460 N   0  0  0  0  0  0  0  0  0  0  0  0
   -4.5540   -0.8730    0.2670 N   0  0  0  0  0  0  0  0  0  0  0  0
   -6.4370    0.4450   -0.1410 N   0  0  0  0  0  0  0  0  0  0  0  0
    1.9020    0.0720    2.8110 O   0  0  0  0  0  0  0  0  0  0  0  0
    3.3240    1.5110    3.6990 O   0  0  0  0  0  0  0  0  0  0  0  0
    5.5540    2.8220   -1.6300 O   0  0  0  0  0  0  0  0  0  0  0  0
    1.5410   -2.5390   -0.2270 O   0  0  0  0  0  0  0  0  0  0  0  0
   -4.3790    1.2590   -0.3310 O   0  0  0  0  0  0  0  0  0  0  0  0
    4.4820   -0.8820   -3.9710 H   0  0  0  0  0  0  0  0  0  0  0  0
    3.4460   -1.9200   -1.9970 H   0  0  0  0  0  0  0  0  0  0  0  0
    5.4810    1.3620   -3.8020 H   0  0  0  0  0  0  0  0  0  0  0  0
    5.1930    1.9770    1.1400 H   0  0  0  0  0  0  0  0  0  0  0  0
    3.4440    2.2300    0.8580 H   0  0  0  0  0  0  0  0  0  0  0  0
   -0.3450    0.7010    0.8610 H   0  0  0  0  0  0  0  0  0  0  0  0
    3.5630   -1.7150    0.8490 H   0  0  0  0  0  0  0  0  0  0  0  0
    4.8610   -0.1690    2.0600 H   0  0  0  0  0  0  0  0  0  0  0  0
   -2.7710    0.9700    0.8880 H   0  0  0  0  0  0  0  0  0  0  0  0
   -6.3320    2.5700   -0.5730 H   0  0  0  0  0  0  0  0  0  0  0  0
   -8.2670    2.5380   -2.2140 H   0  0  0  0  0  0  0  0  0  0  0  0
   -8.5220    0.7430   -1.8780 H   0  0  0  0  0  0  0  0  0  0  0  0
   -8.9440    1.2610    0.5700 H   0  0  0  0  0  0  0  0  0  0  0  0
   -8.6880    3.0570    0.2330 H   0  0  0  0  0  0  0  0  0  0  0  0
   -3.2720   -3.0770   -0.4070 H   0  0  0  0  0  0  0  0  0  0  0  0
   -1.2700   -4.4010   -0.6970 H   0  0  0  0  0  0  0  0  0  0  0  0
    0.2670   -3.7270   -0.6220 H   0  0  0  0  0  0  0  0  0  0  0  0
    1.4470    0.3020    0.9820 H   0  0  0  0  0  0  0  0  0  0  0  0
   -5.1260   -1.6110    0.5300 H   0  0  0  0  0  0  0  0  0  0  0  0
   -7.0100   -0.3110    0.0620 H   0  0  0  0  0  0  0  0  0  0  0  0
    2.6730    1.6970    4.3890 H   0  0  0  0  0  0  0  0  0  0  0  0
    4.9370    3.5420   -1.8200 H   0  0  0  0  0  0  0  0  0  0  0  0
  9 22  1  0  0  0  0
  9 10  2  0  0  0  0
 12 23  1  0  0  0  0
 12 13  1  0  0  0  0
 14 26  2  0  0  0  0
 14 27  1  0  0  0  0
 13 14  1  0  0  0  0
  7 13  1  0  0  0  0
  6  7  1  0  0  0  0
  5  6  2  0  0  0  0
  5 28  1  0  0  0  0
  4  5  1  0  0  0  0
  2  4  2  0  0  0  0
  2  3  1  0  0  0  0
  1  3  2  0  0  0  0
 11 23  1  0  0  0  0
 11 29  2  0  0  0  0
 10 11  1  0  0  0  0
  8 10  1  0  0  0  0
  8 15  2  0  0  0  0
 15 16  1  0  0  0  0
 17 24  1  0  0  0  0
 18 25  1  0  0  0  0
 18 19  1  0  0  0  0
 19 20  1  0  0  0  0
 17 25  1  0  0  0  0
 17 30  2  0  0  0  0
 16 24  1  0  0  0  0
 16 21  2  0  0  0  0
  9 21  1  0  0  0  0
  1 12  1  0  0  0  0
  1  6  1  0  0  0  0
 18 20  1  0  0  0  0
  2 31  1  0  0  0  0
  3 32  1  0  0  0  0
  4 33  1  0  0  0  0
  7 34  1  0  0  0  0
  7 35  1  0  0  0  0
  8 36  1  0  0  0  0
 12 37  1  0  0  0  0
 13 38  1  0  0  0  0
 15 39  1  0  0  0  0
 18 40  1  0  0  0  0
 19 41  1  0  0  0  0
 19 42  1  0  0  0  0
 20 43  1  0  0  0  0
 20 44  1  0  0  0  0
 21 45  1  0  0  0  0
 22 46  1  0  0  0  0
 22 47  1  0  0  0  0
 23 48  1  0  0  0  0
 24 49  1  0  0  0  0
 25 50  1  0  0  0  0
 27 51  1  0  0  0  0
 28 52  1  0  0  0  0
M  END
> <OPENEYE_ISO_SMILES>
c1cc2c(c(c1)O)C[C@H]([C@H]2NC(=O)c3ccc(cc3N)NC(=O)NC4CC4)C(=O)O

> <OPENEYE_INCHI>
InChI=1S/C21H22N4O5/c22-16-8-11(24-21(30)23-10-4-5-10)6-7-13(16)19(27)25-18-12-2-1-3-17(26)14(12)9-15(18)20(28)29/h1-3,6-8,10,15,18,26H,4-5,9,22H2,(H,25,27)(H,28,29)(H2,23,24,30)/t15-,18+/m1/s1

> <OPENEYE_INCHIKEY>
CCYMLLLLZCFHPI-QAPCUYQASA-N

> <FORMULA>
C21H22N4O5

$$$$
