QX5
  -OEChem-02242320033D

 52 55  0     1  0  0  0  0  0999 V2000
    1.2470   -2.2550    0.5830 C   0  0  0  0  0  0  0  0  0  0  0  0
    0.5230   -1.0510    0.5590 C   0  0  0  0  0  0  0  0  0  0  0  0
   -0.9010   -1.0380    0.9300 C   0  0  0  0  0  0  0  0  0  0  0  0
   -3.0390    0.1060    1.1690 C   0  0  1  0  0  0  0  0  0  0  0  0
   -3.5280    1.5570    1.3670 C   0  0  1  0  0  0  0  0  0  0  0  0
   -2.7080    2.5150    0.5420 C   0  0  0  0  0  0  0  0  0  0  0  0
   -4.9820    1.4890    0.8530 C   0  0  0  0  0  0  0  0  0  0  0  0
   -4.9970    0.3490   -0.1430 C   0  0  0  0  0  0  0  0  0  0  0  0
   -5.9180    0.0300   -1.1330 C   0  0  0  0  0  0  0  0  0  0  0  0
   -5.7190   -1.0820   -1.9360 C   0  0  0  0  0  0  0  0  0  0  0  0
   -4.6020   -1.8730   -1.7510 C   0  0  0  0  0  0  0  0  0  0  0  0
   -3.6860   -1.5550   -0.7670 C   0  0  0  0  0  0  0  0  0  0  0  0
   -3.8810   -0.4450    0.0390 C   0  0  0  0  0  0  0  0  0  0  0  0
    1.1610    0.1350    0.1820 C   0  0  0  0  0  0  0  0  0  0  0  0
    2.4820    0.1230   -0.1620 C   0  0  0  0  0  0  0  0  0  0  0  0
    3.2050   -1.0680   -0.1400 C   0  0  0  0  0  0  0  0  0  0  0  0
    5.3300   -0.0080   -0.1900 C   0  0  0  0  0  0  0  0  0  0  0  0
    7.4460    1.1940   -0.3000 C   0  0  0  0  0  0  0  0  0  0  0  0
    8.3100    1.7820   -1.4180 C   0  0  0  0  0  0  0  0  0  0  0  0
    8.9610    0.9800   -0.2900 C   0  0  0  0  0  0  0  0  0  0  0  0
    2.5910   -2.2530    0.2370 C   0  0  0  0  0  0  0  0  0  0  0  0
    0.6240   -3.4390    0.9560 N   0  0  0  0  0  0  0  0  0  0  0  0
   -1.6220    0.0930    0.8000 N   0  0  0  0  0  0  0  0  0  0  0  0
    4.5540   -1.0670   -0.4940 N   0  0  0  0  0  0  0  0  0  0  0  0
    6.6030    0.0430   -0.6310 N   0  0  0  0  0  0  0  0  0  0  0  0
   -2.9940    2.7130   -0.6150 O   0  0  0  0  0  0  0  0  0  0  0  0
   -1.6610    3.1490    1.0930 O   0  0  0  0  0  0  0  0  0  0  0  0
   -7.0170    0.8090   -1.3140 O   0  0  0  0  0  0  0  0  0  0  0  0
   -1.4290   -2.0490    1.3550 O   0  0  0  0  0  0  0  0  0  0  0  0
    4.8830    0.9000    0.4830 O   0  0  0  0  0  0  0  0  0  0  0  0
   -3.1980   -0.4750    2.0780 H   0  0  0  0  0  0  0  0  0  0  0  0
   -3.5020    1.8340    2.4200 H   0  0  0  0  0  0  0  0  0  0  0  0
   -5.6650    1.2810    1.6760 H   0  0  0  0  0  0  0  0  0  0  0  0
   -5.2550    2.4240    0.3640 H   0  0  0  0  0  0  0  0  0  0  0  0
   -6.4350   -1.3290   -2.7060 H   0  0  0  0  0  0  0  0  0  0  0  0
   -4.4440   -2.7400   -2.3760 H   0  0  0  0  0  0  0  0  0  0  0  0
   -2.8130   -2.1750   -0.6240 H   0  0  0  0  0  0  0  0  0  0  0  0
    0.6080    1.0620    0.1630 H   0  0  0  0  0  0  0  0  0  0  0  0
    2.9690    1.0420   -0.4530 H   0  0  0  0  0  0  0  0  0  0  0  0
    7.0310    1.8870    0.4320 H   0  0  0  0  0  0  0  0  0  0  0  0
    8.2510    1.3120   -2.4000 H   0  0  0  0  0  0  0  0  0  0  0  0
    8.4620    2.8610   -1.4220 H   0  0  0  0  0  0  0  0  0  0  0  0
    9.5420    1.5320    0.4490 H   0  0  0  0  0  0  0  0  0  0  0  0
    9.3300   -0.0170   -0.5290 H   0  0  0  0  0  0  0  0  0  0  0  0
    3.1560   -3.1730    0.2580 H   0  0  0  0  0  0  0  0  0  0  0  0
    1.1050   -4.2790    0.9020 H   0  0  0  0  0  0  0  0  0  0  0  0
   -0.2940   -3.4250    1.2700 H   0  0  0  0  0  0  0  0  0  0  0  0
   -1.2010    0.9000    0.4620 H   0  0  0  0  0  0  0  0  0  0  0  0
    4.9340   -1.8290   -0.9590 H   0  0  0  0  0  0  0  0  0  0  0  0
    6.9600   -0.6810   -1.1680 H   0  0  0  0  0  0  0  0  0  0  0  0
   -1.1660    3.7540    0.5250 H   0  0  0  0  0  0  0  0  0  0  0  0
   -6.8870    1.5320   -1.9430 H   0  0  0  0  0  0  0  0  0  0  0  0
  1 22  1  0  0  0  0
  1  2  2  0  0  0  0
  4 23  1  0  0  0  0
  4  5  1  0  0  0  0
  6 26  2  0  0  0  0
  6 27  1  0  0  0  0
  5  6  1  0  0  0  0
  5  7  1  0  0  0  0
  7  8  1  0  0  0  0
  8  9  2  0  0  0  0
  9 28  1  0  0  0  0
  9 10  1  0  0  0  0
 10 11  2  0  0  0  0
 11 12  1  0  0  0  0
 12 13  2  0  0  0  0
  3 23  1  0  0  0  0
  3 29  2  0  0  0  0
  2  3  1  0  0  0  0
  2 14  1  0  0  0  0
 14 15  2  0  0  0  0
 15 16  1  0  0  0  0
 17 24  1  0  0  0  0
 18 25  1  0  0  0  0
 18 19  1  0  0  0  0
 19 20  1  0  0  0  0
 17 25  1  0  0  0  0
 17 30  2  0  0  0  0
 16 24  1  0  0  0  0
 16 21  2  0  0  0  0
  1 21  1  0  0  0  0
  4 13  1  0  0  0  0
  8 13  1  0  0  0  0
 18 20  1  0  0  0  0
  4 31  1  0  0  0  0
  5 32  1  0  0  0  0
  7 33  1  0  0  0  0
  7 34  1  0  0  0  0
 10 35  1  0  0  0  0
 11 36  1  0  0  0  0
 12 37  1  0  0  0  0
 14 38  1  0  0  0  0
 15 39  1  0  0  0  0
 18 40  1  0  0  0  0
 19 41  1  0  0  0  0
 19 42  1  0  0  0  0
 20 43  1  0  0  0  0
 20 44  1  0  0  0  0
 21 45  1  0  0  0  0
 22 46  1  0  0  0  0
 22 47  1  0  0  0  0
 23 48  1  0  0  0  0
 24 49  1  0  0  0  0
 25 50  1  0  0  0  0
 27 51  1  0  0  0  0
 28 52  1  0  0  0  0
M  END
> <OPENEYE_ISO_SMILES>
c1cc2c(c(c1)O)C[C@@H]([C@@H]2NC(=O)c3ccc(cc3N)NC(=O)NC4CC4)C(=O)O

> <OPENEYE_INCHI>
InChI=1S/C21H22N4O5/c22-16-8-11(24-21(30)23-10-4-5-10)6-7-13(16)19(27)25-18-12-2-1-3-17(26)14(12)9-15(18)20(28)29/h1-3,6-8,10,15,18,26H,4-5,9,22H2,(H,25,27)(H,28,29)(H2,23,24,30)/t15-,18+/m0/s1

> <OPENEYE_INCHIKEY>
CCYMLLLLZCFHPI-MAUKXSAKSA-N

> <FORMULA>
C21H22N4O5

$$$$
