LJA
  -OEChem-02242320033D

 25 25  0     0  0  0  0  0  0999 V2000
    2.7080   -0.4300   -0.2700 N   0  0  0  0  0  0  0  0  0  0  0  0
   -4.0400    1.6720   -0.0800 N   0  0  0  0  0  0  0  0  0  0  0  0
    1.0000   -2.1020    0.0820 C   0  0  0  0  0  0  0  0  0  0  0  0
   -0.3330   -2.4580    0.1450 C   0  0  0  0  0  0  0  0  0  0  0  0
   -1.3150   -1.5130   -0.0830 C   0  0  0  0  0  0  0  0  0  0  0  0
   -0.9640   -0.2020   -0.3770 C   0  0  0  0  0  0  0  0  0  0  0  0
    0.3740    0.1590   -0.4410 C   0  0  0  0  0  0  0  0  0  0  0  0
    4.5650    1.1450    0.1640 C   0  0  0  0  0  0  0  0  0  0  0  0
    3.1000    0.7920    0.1410 C   0  0  0  0  0  0  0  0  0  0  0  0
    1.3580   -0.7900   -0.2060 C   0  0  0  0  0  0  0  0  0  0  0  0
   -3.1190    0.7000    0.0750 C   0  0  0  0  0  0  0  0  0  0  0  0
   -1.9590    0.7540   -0.6100 N   0  0  0  0  0  0  0  0  0  0  0  0
    2.2740    1.6080    0.4920 O   0  0  0  0  0  0  0  0  0  0  0  0
   -3.3350   -0.2270    0.8320 O   0  0  0  0  0  0  0  0  0  0  0  0
    3.3620   -1.0590   -0.6130 H   0  0  0  0  0  0  0  0  0  0  0  0
   -3.8670    2.4110   -0.6840 H   0  0  0  0  0  0  0  0  0  0  0  0
   -4.8740    1.6330    0.4120 H   0  0  0  0  0  0  0  0  0  0  0  0
    1.7650   -2.8430    0.2610 H   0  0  0  0  0  0  0  0  0  0  0  0
   -0.6080   -3.4770    0.3730 H   0  0  0  0  0  0  0  0  0  0  0  0
   -2.3570   -1.7950   -0.0340 H   0  0  0  0  0  0  0  0  0  0  0  0
    0.6490    1.1780   -0.6700 H   0  0  0  0  0  0  0  0  0  0  0  0
    5.1500    0.2940   -0.1820 H   0  0  0  0  0  0  0  0  0  0  0  0
    4.7430    1.9990   -0.4900 H   0  0  0  0  0  0  0  0  0  0  0  0
    4.8610    1.4000    1.1820 H   0  0  0  0  0  0  0  0  0  0  0  0
   -1.8150    1.4560   -1.2630 H   0  0  0  0  0  0  0  0  0  0  0  0
 11 14  2  0  0  0  0
 11 12  1  0  0  0  0
  6 12  1  0  0  0  0
  2 11  1  0  0  0  0
  5  6  2  0  0  0  0
  6  7  1  0  0  0  0
  4  5  1  0  0  0  0
  7 10  2  0  0  0  0
  3  4  2  0  0  0  0
  3 10  1  0  0  0  0
  1 10  1  0  0  0  0
  1  9  1  0  0  0  0
  9 13  2  0  0  0  0
  8  9  1  0  0  0  0
  1 15  1  0  0  0  0
  2 16  1  0  0  0  0
  2 17  1  0  0  0  0
  3 18  1  0  0  0  0
  4 19  1  0  0  0  0
  5 20  1  0  0  0  0
  7 21  1  0  0  0  0
  8 22  1  0  0  0  0
  8 23  1  0  0  0  0
  8 24  1  0  0  0  0
 12 25  1  0  0  0  0
M  END
> <OPENEYE_ISO_SMILES>
CC(=O)Nc1cccc(c1)NC(=O)N

> <OPENEYE_INCHI>
InChI=1S/C9H11N3O2/c1-6(13)11-7-3-2-4-8(5-7)12-9(10)14/h2-5H,1H3,(H,11,13)(H3,10,12,14)

> <OPENEYE_INCHIKEY>
GVNXANNAMKHSRF-UHFFFAOYSA-N

> <FORMULA>
C9H11N3O2

$$$$
