L2B
  -OEChem-02242320033D

 33 34  0     1  0  0  0  0  0999 V2000
    1.2700    0.9910    0.3880 C   0  0  2  0  0  0  0  0  0  0  0  0
    3.3640   -0.0840    0.9960 C   0  0  0  0  0  0  0  0  0  0  0  0
    1.2210    2.1030   -0.6830 C   0  0  1  0  0  0  0  0  0  0  0  0
   -0.2880    2.3590   -0.8900 C   0  0  0  0  0  0  0  0  0  0  0  0
    4.4150   -1.6580   -0.3730 C   0  0  0  0  0  0  0  0  0  0  0  0
   -0.9730    1.3710    0.0800 C   0  0  1  0  0  0  0  0  0  0  0  0
    3.3660   -1.5250   -1.3130 C   0  0  0  0  0  0  0  0  0  0  0  0
   -2.2500    0.8080   -0.5470 C   0  0  0  0  0  0  0  0  0  0  0  0
    2.3580   -0.6640   -1.0550 C   0  0  0  0  0  0  0  0  0  0  0  0
    2.3640    0.0570    0.1080 N   0  0  0  0  0  0  0  0  0  0  0  0
    4.3840   -0.9300    0.7620 N   0  0  0  0  0  0  0  0  0  0  0  0
    3.3490    0.5670    2.0240 O   0  0  0  0  0  0  0  0  0  0  0  0
    1.8690    3.2840   -0.2080 O   0  0  0  0  0  0  0  0  0  0  0  0
    5.3370   -2.4250   -0.5850 O   0  0  0  0  0  0  0  0  0  0  0  0
   -0.0040    0.3190    0.2810 O   0  0  0  0  0  0  0  0  0  0  0  0
   -2.9280   -0.0110    0.4080 O   0  0  0  0  0  0  0  0  0  0  0  0
   -5.4710    0.3200   -0.1700 O   0  0  0  0  0  0  0  0  0  0  0  0
   -4.1480   -1.6090   -1.1180 O   0  0  0  0  0  0  0  0  0  0  0  0
   -4.3120   -0.7680    0.0880 P   0  0  0  0  0  0  0  0  0  0  0  0
   -4.7180   -1.6970    1.3390 O   0  0  0  0  0  0  0  0  0  0  0  0
    1.3880    1.4250    1.3810 H   0  0  0  0  0  0  0  0  0  0  0  0
    1.6840    1.7610   -1.6100 H   0  0  0  0  0  0  0  0  0  0  0  0
   -0.5400    3.3870   -0.6300 H   0  0  0  0  0  0  0  0  0  0  0  0
   -0.5750    2.1440   -1.9190 H   0  0  0  0  0  0  0  0  0  0  0  0
   -1.2010    1.8650    1.0250 H   0  0  0  0  0  0  0  0  0  0  0  0
    3.3740   -2.1000   -2.2270 H   0  0  0  0  0  0  0  0  0  0  0  0
   -2.9000    1.6290   -0.8480 H   0  0  0  0  0  0  0  0  0  0  0  0
   -1.9920    0.2090   -1.4200 H   0  0  0  0  0  0  0  0  0  0  0  0
    1.5490   -0.5490   -1.7610 H   0  0  0  0  0  0  0  0  0  0  0  0
    5.0990   -1.0160    1.4110 H   0  0  0  0  0  0  0  0  0  0  0  0
    1.8160    4.0340   -0.8170 H   0  0  0  0  0  0  0  0  0  0  0  0
   -5.6340    0.9070    0.5810 H   0  0  0  0  0  0  0  0  0  0  0  0
   -5.5440   -2.1840    1.2160 H   0  0  0  0  0  0  0  0  0  0  0  0
  5 14  2  0  0  0  0
  5 11  1  0  0  0  0
  5  7  1  0  0  0  0
  2 11  1  0  0  0  0
  7  9  2  0  0  0  0
  2 12  2  0  0  0  0
  2 10  1  0  0  0  0
  9 10  1  0  0  0  0
  1 10  1  0  0  0  0
  3 13  1  0  0  0  0
  3  4  1  0  0  0  0
  1  3  1  0  0  0  0
  4  6  1  0  0  0  0
  1 15  1  0  0  0  0
  6 15  1  0  0  0  0
  6  8  1  0  0  0  0
  8 16  1  0  0  0  0
 18 19  2  0  0  0  0
 16 19  1  0  0  0  0
 17 19  1  0  0  0  0
 19 20  1  0  0  0  0
  1 21  1  0  0  0  0
  3 22  1  0  0  0  0
  4 23  1  0  0  0  0
  4 24  1  0  0  0  0
  6 25  1  0  0  0  0
  7 26  1  0  0  0  0
  8 27  1  0  0  0  0
  8 28  1  0  0  0  0
  9 29  1  0  0  0  0
 11 30  1  0  0  0  0
 13 31  1  0  0  0  0
 17 32  1  0  0  0  0
 20 33  1  0  0  0  0
M  END
> <OPENEYE_ISO_SMILES>
c1cn(c(=O)[nH]c1=O)[C@H]2[C@@H](C[C@H](O2)COP(=O)(O)O)O

> <OPENEYE_INCHI>
InChI=1S/C9H13N2O8P/c12-6-3-5(4-18-20(15,16)17)19-8(6)11-2-1-7(13)10-9(11)14/h1-2,5-6,8,12H,3-4H2,(H,10,13,14)(H2,15,16,17)/t5-,6+,8+/m0/s1

> <OPENEYE_INCHIKEY>
SEOHEWZQAGEAGZ-SHYZEUOFSA-N

> <FORMULA>
C9H13N2O8P

$$$$
