WSJ
  -OEChem-02242320043D

 34 35  0     0  0  0  0  0  0999 V2000
    0.9060    1.8230   -0.0820 N   0  0  0  0  0  0  0  0  0  0  0  0
   -2.4970    0.7170   -0.0920 N   0  0  0  0  0  0  0  0  0  0  0  0
   -0.1280   -0.1430   -0.0430 C   0  0  0  0  0  0  0  0  0  0  0  0
    2.3190   -0.2330   -0.0200 C   0  0  0  0  0  0  0  0  0  0  0  0
    3.4390    0.3910    0.5150 C   0  0  0  0  0  0  0  0  0  0  0  0
    4.6490   -0.2730    0.5450 C   0  0  0  0  0  0  0  0  0  0  0  0
    4.7480   -1.5580    0.0420 C   0  0  0  0  0  0  0  0  0  0  0  0
    2.4210   -1.5230   -0.5230 C   0  0  0  0  0  0  0  0  0  0  0  0
   -1.0890    3.4370   -0.1330 C   0  0  0  0  0  0  0  0  0  0  0  0
   -0.4450    2.0740   -0.1000 C   0  0  0  0  0  0  0  0  0  0  0  0
    1.9680    2.8320   -0.0910 C   0  0  0  0  0  0  0  0  0  0  0  0
    1.0910    0.4350   -0.0460 N   0  0  0  0  0  0  0  0  0  0  0  0
   -0.3550   -1.3390   -0.0180 O   0  0  0  0  0  0  0  0  0  0  0  0
    3.6350   -2.1810   -0.4910 C   0  0  0  0  0  0  0  0  0  0  0  0
   -1.0970    0.8920   -0.0820 C   0  0  0  0  0  0  0  0  0  0  0  0
   -3.1420   -0.8050    0.0030 S   0  0  0  0  0  0  0  0  0  0  0  0
   -2.6280   -1.4130    1.6330 C   0  0  0  0  0  0  0  0  0  0  0  0
   -4.5470   -0.5930   -0.0300 O   0  0  0  0  0  0  0  0  0  0  0  0
   -2.4850   -1.5290   -1.0280 O   0  0  0  0  0  0  0  0  0  0  0  0
   -3.0820    1.4890   -0.1550 H   0  0  0  0  0  0  0  0  0  0  0  0
    3.3630    1.3950    0.9070 H   0  0  0  0  0  0  0  0  0  0  0  0
    5.5210    0.2120    0.9600 H   0  0  0  0  0  0  0  0  0  0  0  0
    5.6950   -2.0750    0.0670 H   0  0  0  0  0  0  0  0  0  0  0  0
    1.5510   -2.0130   -0.9360 H   0  0  0  0  0  0  0  0  0  0  0  0
   -1.3150    3.7060   -1.1650 H   0  0  0  0  0  0  0  0  0  0  0  0
   -2.0110    3.4170    0.4480 H   0  0  0  0  0  0  0  0  0  0  0  0
   -0.4060    4.1720    0.2940 H   0  0  0  0  0  0  0  0  0  0  0  0
    1.5280    3.8220   -0.2090 H   0  0  0  0  0  0  0  0  0  0  0  0
    2.5190    2.7880    0.8480 H   0  0  0  0  0  0  0  0  0  0  0  0
    2.6480    2.6360   -0.9210 H   0  0  0  0  0  0  0  0  0  0  0  0
    3.7150   -3.1850   -0.8830 H   0  0  0  0  0  0  0  0  0  0  0  0
   -3.0960   -0.8080    2.4100 H   0  0  0  0  0  0  0  0  0  0  0  0
   -2.9360   -2.4520    1.7470 H   0  0  0  0  0  0  0  0  0  0  0  0
   -1.5440   -1.3430    1.7220 H   0  0  0  0  0  0  0  0  0  0  0  0
  6  7  2  0  0  0  0
  5  6  1  0  0  0  0
  7 14  1  0  0  0  0
  4  5  2  0  0  0  0
  8 14  2  0  0  0  0
  4  8  1  0  0  0  0
  4 12  1  0  0  0  0
  1 12  1  0  0  0  0
  3 12  1  0  0  0  0
  1 11  1  0  0  0  0
  3 13  2  0  0  0  0
  1 10  1  0  0  0  0
  3 15  1  0  0  0  0
 10 15  2  0  0  0  0
  9 10  1  0  0  0  0
  2 15  1  0  0  0  0
  2 16  1  0  0  0  0
 16 17  1  0  0  0  0
 16 18  2  0  0  0  0
 16 19  2  0  0  0  0
  2 20  1  0  0  0  0
  5 21  1  0  0  0  0
  6 22  1  0  0  0  0
  7 23  1  0  0  0  0
  8 24  1  0  0  0  0
  9 25  1  0  0  0  0
  9 26  1  0  0  0  0
  9 27  1  0  0  0  0
 11 28  1  0  0  0  0
 11 29  1  0  0  0  0
 11 30  1  0  0  0  0
 14 31  1  0  0  0  0
 17 32  1  0  0  0  0
 17 33  1  0  0  0  0
 17 34  1  0  0  0  0
M  END
> <OPENEYE_ISO_SMILES>
Cc1c(c(=O)n(n1C)c2ccccc2)NS(=O)(=O)C

> <OPENEYE_INCHI>
InChI=1S/C12H15N3O3S/c1-9-11(13-19(3,17)18)12(16)15(14(9)2)10-7-5-4-6-8-10/h4-8,13H,1-3H3

> <OPENEYE_INCHIKEY>
BDOBGHXBYQIIGP-UHFFFAOYSA-N

> <FORMULA>
C12H15N3O3S

$$$$
