@<TRIPOS>MOLECULE
/home/pku/3cl/gett_pdb/5SQN/5SQN_mol2/ligand/5SQN_QT6.pdb
 43 46 0 0 0
SMALL
GASTEIGER

@<TRIPOS>ATOM
      1  C16      -50.1630  -28.9520    3.6050 C.ar  201  QT6201     -0.0257
      2  C17      -48.7770  -28.9860    3.5170 C.ar  201  QT6201     -0.0491
      3  C15      -50.7730  -28.9870    4.8510 C.ar  201  QT6201      0.1254
      4  C14      -50.0030  -29.0470    5.9940 C.ar  201  QT6201     -0.0025
      5  C13      -48.6110  -29.0770    5.9040 C.ar  201  QT6201      0.0515
      6  C12      -47.9810  -29.0500    4.6740 C.ar  201  QT6201      0.0124
      7  C11      -46.5680  -29.1010    4.9370 C.ar  201  QT6201      0.0663
      8  C10      -45.3480  -29.1140    4.2180 C.ar  201  QT6201      0.1343
      9  C20      -46.4610  -29.1510    6.3140 C.ar  201  QT6201      0.1442
     10  C02      -44.3720  -26.3950   -2.3430 C.2   201  QT6201      0.0418
     11  C03      -43.6640  -26.2060   -1.0040 C.3   201  QT6201     -0.0129
     12  C04      -44.6150  -26.3210    0.1830 C.3   201  QT6201     -0.0437
     13  C05      -44.6290  -27.7910    0.7080 C.3   201  QT6201     -0.0249
     14  C06      -45.5540  -28.6450   -0.0670 C.3   201  QT6201     -0.0474
     15  C07      -46.6600  -29.2120    0.7560 C.3   201  QT6201     -0.0369
     16  C08      -46.1210  -29.9680    1.9750 C.3   201  QT6201      0.0135
     17  C22      -44.1490  -29.2070    6.1830 C.ar  201  QT6201      0.1204
     18  C24      -45.0290  -27.7460    2.1530 C.3   201  QT6201      0.0164
     19  F18      -52.1290  -28.9540    4.9630 F     201  QT6201     -0.2054
     20  N09      -45.2800  -29.0610    2.7670 N.pl3 201  QT6201     -0.3143
     21  N19      -47.6790  -29.1380    6.8550 N.ar  201  QT6201     -0.3389
     22  N21      -45.2550  -29.2050    6.8830 N.ar  201  QT6201     -0.2178
     23  N23      -44.1860  -29.1600    4.8620 N.ar  201  QT6201     -0.2200
     24  O01      -43.6980  -26.5140   -3.3990 O.co2 201  QT6201     -0.5498
     25  O25      -45.6280  -26.4300   -2.3920 O.co2 201  QT6201     -0.5498
     26 H161      -50.7660  -28.9160    2.7030 H     201  QT6201      0.0646
     27 H171      -48.3170  -28.9710    2.5400 H     201  QT6201      0.0625
     28 H141      -50.4720  -29.0740    6.9630 H     201  QT6201      0.0667
     29 H032      -42.9000  -26.9750   -0.9090 H     201  QT6201      0.0325
     30 H031      -43.1950  -25.2310   -0.9750 H     201  QT6201      0.0325
     31 H042      -45.6170  -26.0220   -0.1040 H     201  QT6201      0.0272
     32 H041      -44.2760  -25.6590    0.9770 H     201  QT6201      0.0272
     33 H051      -43.6400  -28.1920    0.7030 H     201  QT6201      0.0316
     34 H062      -44.9700  -29.4480   -0.4820 H     201  QT6201      0.0269
     35 H061      -45.9900  -28.0570   -0.8540 H     201  QT6201      0.0269
     36 H071      -47.2080  -29.9050    0.1510 H     201  QT6201      0.0280
     37 H072      -47.3170  -28.3990    1.0600 H     201  QT6201      0.0280
     38 H081      -45.5100  -30.7750    1.6280 H     201  QT6201      0.0464
     39 H082      -46.9060  -30.3670    2.5920 H     201  QT6201      0.0464
     40 H221      -43.2040  -29.2460    6.7100 H     201  QT6201      0.1048
     41 H242      -44.1810  -27.2800    2.7090 H     201  QT6201      0.0467
     42 H241      -45.9870  -27.1610    2.1720 H     201  QT6201      0.0467
     43 H191      -47.8710  -29.1700    7.8350 H     201  QT6201      0.1673
@<TRIPOS>UNITY_ATOM_ATTR
25 1
charge -1
@<TRIPOS>BOND
     1    24    10   ar
     2    25    10   ar
     3    10    11    1
     4    11    30    1
     5    11    29    1
     6    11    12    1
     7    35    14    1
     8    34    14    1
     9    31    12    1
    10    14    13    1
    11    14    15    1
    12    36    15    1
    13    12    13    1
    14    12    32    1
    15    33    13    1
    16    13    18    1
    17    15    37    1
    18    15    16    1
    19    38    16    1
    20    16    39    1
    21    16    20    1
    22    18    42    1
    23    18    41    1
    24    18    20    1
    25    27     2    1
    26    26     1    1
    27    20     8    1
    28     2     1   ar
    29     2     6   ar
    30     1     3   ar
    31     8    23   ar
    32     8     7   ar
    33     6     7   ar
    34     6     5   ar
    35     3    19    1
    36     3     4   ar
    37    23    17   ar
    38     7     9   ar
    39     5     4   ar
    40     5    21   ar
    41     4    28    1
    42    17    40    1
    43    17    22   ar
    44     9    21   ar
    45     9    22   ar
    46    21    43    1
