MOK
  -OEChem-02242320033D

 24 25  0     0  0  0  0  0  0999 V2000
    3.8360    0.4930   -0.0000 C   0  0  0  0  0  0  0  0  0  0  0  0
    2.3680    0.8260   -0.0710 C   0  0  0  0  0  0  0  0  0  0  0  0
    1.3210   -0.0550    0.0420 C   0  0  0  0  0  0  0  0  0  0  0  0
    1.3630   -1.5100    0.2550 C   0  0  0  0  0  0  0  0  0  0  0  0
    1.4000   -2.3450   -0.8030 O   0  0  0  0  0  0  0  0  0  0  0  0
    1.3660   -1.9590    1.3840 O   0  0  0  0  0  0  0  0  0  0  0  0
    0.1390    0.8210   -0.1030 C   0  0  0  0  0  0  0  0  0  0  0  0
    0.6250    2.0250   -0.2710 N   0  0  0  0  0  0  0  0  0  0  0  0
    1.8310    2.0340   -0.2490 O   0  0  0  0  0  0  0  0  0  0  0  0
   -1.2890    0.4230   -0.0670 C   0  0  0  0  0  0  0  0  0  0  0  0
   -1.6860   -0.8080   -0.5880 C   0  0  0  0  0  0  0  0  0  0  0  0
   -3.0160   -1.1740   -0.5510 C   0  0  0  0  0  0  0  0  0  0  0  0
   -3.9550   -0.3220    0.0010 C   0  0  0  0  0  0  0  0  0  0  0  0
   -3.5680    0.9010    0.5190 C   0  0  0  0  0  0  0  0  0  0  0  0
   -2.2390    1.2750    0.4930 C   0  0  0  0  0  0  0  0  0  0  0  0
    4.4210    1.4050   -0.1190 H   0  0  0  0  0  0  0  0  0  0  0  0
    4.0600    0.0410    0.9660 H   0  0  0  0  0  0  0  0  0  0  0  0
    4.0890   -0.2070   -0.7970 H   0  0  0  0  0  0  0  0  0  0  0  0
    1.4280   -3.2930   -0.6130 H   0  0  0  0  0  0  0  0  0  0  0  0
   -0.9530   -1.4730   -1.0200 H   0  0  0  0  0  0  0  0  0  0  0  0
   -3.3240   -2.1270   -0.9550 H   0  0  0  0  0  0  0  0  0  0  0  0
   -4.9950   -0.6120    0.0270 H   0  0  0  0  0  0  0  0  0  0  0  0
   -4.3060    1.5620    0.9490 H   0  0  0  0  0  0  0  0  0  0  0  0
   -1.9370    2.2270    0.9020 H   0  0  0  0  0  0  0  0  0  0  0  0
  4  6  2  0  0  0  0
  4  5  1  0  0  0  0
  3  4  1  0  0  0  0
 11 12  2  0  0  0  0
 12 13  1  0  0  0  0
 10 11  1  0  0  0  0
  1  2  1  0  0  0  0
  2  3  2  0  0  0  0
  3  7  1  0  0  0  0
 13 14  2  0  0  0  0
  2  9  1  0  0  0  0
  7 10  1  0  0  0  0
 10 15  2  0  0  0  0
  7  8  2  0  0  0  0
  8  9  1  0  0  0  0
 14 15  1  0  0  0  0
  1 16  1  0  0  0  0
  1 17  1  0  0  0  0
  1 18  1  0  0  0  0
  5 19  1  0  0  0  0
 11 20  1  0  0  0  0
 12 21  1  0  0  0  0
 13 22  1  0  0  0  0
 14 23  1  0  0  0  0
 15 24  1  0  0  0  0
M  END
> <OPENEYE_ISO_SMILES>
Cc1c(c(no1)c2ccccc2)C(=O)O

> <OPENEYE_INCHI>
InChI=1S/C11H9NO3/c1-7-9(11(13)14)10(12-15-7)8-5-3-2-4-6-8/h2-6H,1H3,(H,13,14)

> <OPENEYE_INCHIKEY>
PENHKTNQUJMHIR-UHFFFAOYSA-N

> <FORMULA>
C11H9NO3

$$$$
