@<TRIPOS>MOLECULE
/home/pku/3cl/gett_pdb/5RGY/5RGY_mol2/ligand/5RGY_UGS.pdb
 22 24 0 0 0
SMALL
GASTEIGER

@<TRIPOS>ATOM
      1  N1        10.6480    3.3650   22.1760 N.am  1001  UGS1001    -0.1600
      2  C4        10.1210    2.0680   22.1410 C.ar  1001  UGS1001     0.1575
      3  C5        11.2230    4.0260   23.2030 C.2   1001  UGS1001     0.2513
      4  C6        11.8940    5.3280   22.8190 C.3   1001  UGS1001     0.1135
      5  C7        11.1190    6.5340   23.2990 C.ar  1001  UGS1001    -0.0130
      6  C8        10.0310    6.9960   22.5660 C.ar  1001  UGS1001    -0.0038
      7  C10        9.7100    8.8320   24.1010 C.ar  1001  UGS1001    -0.0000
      8  C13       10.4980   10.2050   26.4050 C.ar  1001  UGS1001    -0.0000
      9  C15       10.8040    8.3620   24.8700 C.ar  1001  UGS1001    -0.0003
     10  C17       10.3540    1.1120   23.1380 C.ar  1001  UGS1001     0.0731
     11  O1        11.2200    3.6280   24.3570 O.2   1001  UGS1001    -0.2726
     12  N          9.4310    1.8050   21.0190 N.ar  1001  UGS1001    -0.2271
     13  C3         8.9820    0.5530   20.8490 C.ar  1001  UGS1001     0.1035
     14  C2         9.1820   -0.4710   21.7570 C.ar  1001  UGS1001     0.0577
     15  C1         9.8680   -0.1690   22.9250 C.ar  1001  UGS1001     0.1431
     16  O         10.1040   -1.0120   23.9800 O.3   1001  UGS1001    -0.4713
     17  C          9.6410   -2.3620   23.8900 C.3   1001  UGS1001     0.2525
     18  C16       11.4900    7.2030   24.4390 C.ar  1001  UGS1001    -0.0038
     19  C9         9.3410    8.1090   22.9440 C.ar  1001  UGS1001    -0.0003
     20  C14       11.1730    9.0750   26.0390 C.ar  1001  UGS1001    -0.0000
     21  C12        9.4330   10.6680   25.6480 C.ar  1001  UGS1001    -0.0000
     22  C11        9.0370   10.0050   24.5200 C.ar  1001  UGS1001    -0.0000
@<TRIPOS>BOND
     1    13    12   ar
     2    13    14   ar
     3    12     2   ar
     4    14    15   ar
     5     2     1    1
     6     2    10   ar
     7     1     3   am
     8     6    19   ar
     9     6     5   ar
    10     4     3    1
    11     4     5    1
    12    15    10   ar
    13    15    16    1
    14    19     7   ar
    15     3    11    2
    16     5    18   ar
    17    17    16    1
    18     7    22   ar
    19     7     9   ar
    20    18     9   ar
    21    22    21   ar
    22     9    20   ar
    23    21     8   ar
    24    20     8   ar
