QT6
  -OEChem-02242320033D

 44 47  0     1  0  0  0  0  0999 V2000
   -2.7470    2.7140    0.4580 C   0  0  0  0  0  0  0  0  0  0  0  0
   -1.9800    1.5690    0.4660 C   0  0  0  0  0  0  0  0  0  0  0  0
   -4.0490    2.6810   -0.0230 C   0  0  0  0  0  0  0  0  0  0  0  0
   -4.5880    1.5040   -0.5040 C   0  0  0  0  0  0  0  0  0  0  0  0
   -3.8270    0.3400   -0.5080 C   0  0  0  0  0  0  0  0  0  0  0  0
   -2.5150    0.3740   -0.0120 C   0  0  0  0  0  0  0  0  0  0  0  0
   -1.9850   -0.9910   -0.1530 C   0  0  0  0  0  0  0  0  0  0  0  0
   -0.7650   -1.6080    0.1480 C   0  0  0  0  0  0  0  0  0  0  0  0
   -3.0090   -1.7610   -0.7250 C   0  0  0  0  0  0  0  0  0  0  0  0
    5.9710    1.0760   -0.8760 C   0  0  0  0  0  0  0  0  0  0  0  0
    4.7610    1.0730    0.0230 C   0  0  0  0  0  0  0  0  0  0  0  0
    3.7420    0.0580   -0.4980 C   0  0  0  0  0  0  0  0  0  0  0  0
    2.5140    0.0550    0.4140 C   0  0  2  0  0  0  0  0  0  0  0  0
    2.9100   -0.4520    1.8040 C   0  0  0  0  0  0  0  0  0  0  0  0
    1.6650   -0.5090    2.6920 C   0  0  0  0  0  0  0  0  0  0  0  0
    0.6190   -1.4150    2.0390 C   0  0  0  0  0  0  0  0  0  0  0  0
   -1.6140   -3.5930   -0.6600 C   0  0  0  0  0  0  0  0  0  0  0  0
    1.4430   -0.8670   -0.1730 C   0  0  0  0  0  0  0  0  0  0  0  0
   -4.7940    3.8080   -0.0220 F   0  0  0  0  0  0  0  0  0  0  0  0
    0.2720   -0.8870    0.7130 N   0  0  1  0  0  0  0  0  0  0  0  0
   -4.1020   -0.9530   -0.9220 N   0  0  0  0  0  0  0  0  0  0  0  0
   -2.7770   -3.0530   -0.9590 N   0  0  0  0  0  0  0  0  0  0  0  0
   -0.6270   -2.9040   -0.1220 N   0  0  0  0  0  0  0  0  0  0  0  0
    6.0130    0.3420   -1.8350 O   0  0  0  0  0  0  0  0  0  0  0  0
    7.0010    1.8950   -0.6120 O   0  0  0  0  0  0  0  0  0  0  0  0
   -2.3350    3.6400    0.8320 H   0  0  0  0  0  0  0  0  0  0  0  0
   -0.9680    1.5980    0.8400 H   0  0  0  0  0  0  0  0  0  0  0  0
   -5.6020    1.4870   -0.8760 H   0  0  0  0  0  0  0  0  0  0  0  0
    5.0610    0.8010    1.0350 H   0  0  0  0  0  0  0  0  0  0  0  0
    4.3130    2.0660    0.0320 H   0  0  0  0  0  0  0  0  0  0  0  0
    3.4420    0.3300   -1.5100 H   0  0  0  0  0  0  0  0  0  0  0  0
    4.1900   -0.9360   -0.5070 H   0  0  0  0  0  0  0  0  0  0  0  0
    2.1180    1.0670    0.4950 H   0  0  0  0  0  0  0  0  0  0  0  0
    3.3420   -1.4490    1.7180 H   0  0  0  0  0  0  0  0  0  0  0  0
    3.6420    0.2250    2.2440 H   0  0  0  0  0  0  0  0  0  0  0  0
    1.9330   -0.9100    3.6700 H   0  0  0  0  0  0  0  0  0  0  0  0
    1.2550    0.4940    2.8100 H   0  0  0  0  0  0  0  0  0  0  0  0
    1.0240   -2.4220    1.9340 H   0  0  0  0  0  0  0  0  0  0  0  0
   -0.2750   -1.4460    2.6620 H   0  0  0  0  0  0  0  0  0  0  0  0
   -1.4630   -4.6430   -0.8640 H   0  0  0  0  0  0  0  0  0  0  0  0
    1.1480   -0.5010   -1.1570 H   0  0  0  0  0  0  0  0  0  0  0  0
    1.8440   -1.8760   -0.2670 H   0  0  0  0  0  0  0  0  0  0  0  0
   -4.9440   -1.2440   -1.3050 H   0  0  0  0  0  0  0  0  0  0  0  0
    7.7550    1.8620   -1.2170 H   0  0  0  0  0  0  0  0  0  0  0  0
 10 24  2  0  0  0  0
 11 12  1  0  0  0  0
 12 13  1  0  0  0  0
 13 14  1  0  0  0  0
 14 15  1  0  0  0  0
 15 16  1  0  0  0  0
 16 20  1  0  0  0  0
  7  8  2  0  0  0  0
  6  7  1  0  0  0  0
  5  6  2  0  0  0  0
  3  4  2  0  0  0  0
  1  2  2  0  0  0  0
  1  3  1  0  0  0  0
  3 19  1  0  0  0  0
  4  5  1  0  0  0  0
  5 21  1  0  0  0  0
  9 21  1  0  0  0  0
  9 22  2  0  0  0  0
 17 22  1  0  0  0  0
 17 23  2  0  0  0  0
  8 20  1  0  0  0  0
 18 20  1  0  0  0  0
 10 11  1  0  0  0  0
 10 25  1  0  0  0  0
 13 18  1  0  0  0  0
  8 23  1  0  0  0  0
  7  9  1  0  0  0  0
  2  6  1  0  0  0  0
  1 26  1  0  0  0  0
  2 27  1  0  0  0  0
  4 28  1  0  0  0  0
 11 29  1  0  0  0  0
 11 30  1  0  0  0  0
 12 31  1  0  0  0  0
 12 32  1  0  0  0  0
 13 33  1  0  0  0  0
 14 34  1  0  0  0  0
 14 35  1  0  0  0  0
 15 36  1  0  0  0  0
 15 37  1  0  0  0  0
 16 38  1  0  0  0  0
 16 39  1  0  0  0  0
 17 40  1  0  0  0  0
 18 41  1  0  0  0  0
 18 42  1  0  0  0  0
 21 43  1  0  0  0  0
 25 44  1  0  0  0  0
M  END
> <OPENEYE_ISO_SMILES>
c1cc2c(cc1F)[nH]c3c2c(ncn3)[N@]4CCC[C@H](C4)CCC(=O)O

> <OPENEYE_INCHI>
InChI=1S/C18H19FN4O2/c19-12-4-5-13-14(8-12)22-17-16(13)18(21-10-20-17)23-7-1-2-11(9-23)3-6-15(24)25/h4-5,8,10-11H,1-3,6-7,9H2,(H,24,25)(H,20,21,22)/t11-/m0/s1

> <OPENEYE_INCHIKEY>
GCGYUCGJMQIASH-NSHDSACASA-N

> <FORMULA>
C18H19FN4O2

$$$$
