@<TRIPOS>MOLECULE
/home/pku/3cl/gett_pdb/7LKS/7LKS_mol2/ligand/7LKS_Y7G.pdb
 30 32 0 0 0
SMALL
GASTEIGER

@<TRIPOS>ATOM
      1  C02       10.9620   23.9820   26.1240 C.2   401  Y7G401      0.4215
      2  C04       12.1490   22.1600   27.2850 C.3   401  Y7G401      0.1761
      3  C05       13.2690   21.9800   28.2800 C.3   401  Y7G401      0.0312
      4  C06       14.6490   22.3000   27.7540 C.3   401  Y7G401      0.0022
      5  C07       15.0580   21.3450   26.6540 C.3   401  Y7G401      0.0001
      6  C08       15.6790   22.2780   28.9120 C.3   401  Y7G401      0.0001
      7  C09       10.8560   21.5180   27.7850 C.2   401  Y7G401      0.2614
      8  C11        8.9970   19.8290   27.6340 C.3   401  Y7G401      0.1287
      9  C12        7.9770   19.6990   26.4380 C.3   401  Y7G401      0.0335
     10  C13        7.5670   21.0510   25.8680 C.3   401  Y7G401      0.0818
     11  C14        6.5730   20.9740   24.7120 C.2   401  Y7G401      0.2410
     12  C16        5.7290   22.6690   26.1360 C.3   401  Y7G401      0.1156
     13  C17        6.8410   21.9560   26.8750 C.3   401  Y7G401      0.0326
     14  C19        9.2380   18.4430   28.2670 C.3   401  Y7G401      0.2036
     15  C23        9.7900   25.7850   25.2430 C.3   401  Y7G401      0.2100
     16  C24       10.0560   27.3330   25.4280 C.3   401  Y7G401      0.0439
     17  C25        8.8430   28.2430   25.3730 C.3   401  Y7G401      0.0036
     18  C26        8.0080   27.9020   24.1340 C.3   401  Y7G401      0.0001
     19  C27        8.9130   28.1830   23.0080 C.3   401  Y7G401      0.0000
     20  C28       10.1130   28.8860   23.6330 C.3   401  Y7G401      0.0001
     21  C29        9.5310   29.5440   24.8960 C.3   401  Y7G401      0.0001
     22  C30       10.9740   27.8090   24.3020 C.3   401  Y7G401      0.0037
     23  N03       11.9290   23.5880   26.9930 N.am  401  Y7G401     -0.1611
     24  N10       10.2530   20.4410   27.1580 N.am  401  Y7G401     -0.2030
     25  N15        5.5580   21.8950   24.8990 N.am  401  Y7G401     -0.2054
     26  O01       10.2430   23.2660   25.4330 O.2   401  Y7G401     -0.2246
     27  O18        6.7000   20.2000   23.7770 O.2   401  Y7G401     -0.2734
     28  O20        7.9850   17.9550   28.7490 O.3   401  Y7G401     -0.2185
     29  O21       10.3300   21.9710   28.7950 O.2   401  Y7G401     -0.2715
     30  O22       10.7760   25.3320   26.0170 O.3   401  Y7G401     -0.4335
@<TRIPOS>BOND
     1    19    20    1
     2    19    18    1
     3    20    22    1
     4    20    21    1
     5    27    11    2
     6    18    17    1
     7    22    16    1
     8    11    25   am
     9    11    10    1
    10    21    17    1
    11    25    12    1
    12    15    16    1
    13    15    30    1
    14    17    16    1
    15    26     1    2
    16    10     9    1
    17    10    13    1
    18    30     1    1
    19     1    23   am
    20    12    13    1
    21     9     8    1
    22     5     4    1
    23    23     2    1
    24    24     8    1
    25    24     7   am
    26     2     7    1
    27     2     3    1
    28     8    14    1
    29     4     3    1
    30     4     6    1
    31     7    29    2
    32    14    28    1
