V69
  -OEChem-02242320043D

 74 74  0     1  0  0  0  0  0999 V2000
    8.8280   -0.1700   -0.3770 C   0  0  0  0  0  0  0  0  0  0  0  0
    7.4070    0.1540    0.0910 C   0  0  0  0  0  0  0  0  0  0  0  0
    6.4480   -0.9320   -0.4010 C   0  0  0  0  0  0  0  0  0  0  0  0
    5.0280   -0.6070    0.0660 C   0  0  0  0  0  0  0  0  0  0  0  0
    4.0680   -1.6920   -0.4260 C   0  0  0  0  0  0  0  0  0  0  0  0
    2.6480   -1.3680    0.0420 C   0  0  2  0  0  0  0  0  0  0  0  0
    1.1450    0.4850   -0.0320 C   0  0  0  0  0  0  0  0  0  0  0  0
    1.7100   -2.5140   -0.3430 C   0  0  0  0  0  0  0  0  0  0  0  0
    0.8600   -2.9050    0.8680 C   0  0  0  0  0  0  0  0  0  0  0  0
   -0.6090   -3.0000    0.4500 C   0  0  0  0  0  0  0  0  0  0  0  0
   -0.8680   -4.3610   -0.1980 C   0  0  0  0  0  0  0  0  0  0  0  0
   -2.3140   -4.7850    0.0680 C   0  0  0  0  0  0  0  0  0  0  0  0
   -3.2190   -3.7890   -0.5550 N   0  0  0  0  0  0  0  0  0  0  0  0
    2.1980   -0.1420   -0.5920 O   0  0  0  0  0  0  0  0  0  0  0  0
    0.6130    0.0370    0.9640 O   0  0  0  0  0  0  0  0  0  0  0  0
    0.6910    1.6390   -0.6120 N   0  0  0  0  0  0  0  0  0  0  0  0
   -0.4680    2.2610    0.0750 C   0  0  2  0  0  0  0  0  0  0  0  0
   -1.7320    1.6440   -0.4670 C   0  0  0  0  0  0  0  0  0  0  0  0
   -1.8150    1.3400   -1.6380 O   0  0  0  0  0  0  0  0  0  0  0  0
   -0.4730    3.7680   -0.1880 C   0  0  0  0  0  0  0  0  0  0  0  0
    0.7640    4.4020    0.4530 C   0  0  0  0  0  0  0  0  0  0  0  0
    0.8250    5.8850    0.0860 C   0  0  0  0  0  0  0  0  0  0  0  0
    0.6800    4.2560    1.9740 C   0  0  0  0  0  0  0  0  0  0  0  0
   -2.7800    1.4330    0.3780 N   0  0  0  0  0  0  0  0  0  0  0  0
   -3.9860    0.8230   -0.2190 C   0  0  1  0  0  0  0  0  0  0  0  0
   -4.3710   -0.4110    0.6000 C   0  0  0  0  0  0  0  0  0  0  0  0
   -4.4150   -1.6370   -0.3150 C   0  0  0  0  0  0  0  0  0  0  0  0
   -3.5020   -2.7040    0.2310 C   0  0  0  0  0  0  0  0  0  0  0  0
   -3.0270   -2.6040    1.3420 O   0  0  0  0  0  0  0  0  0  0  0  0
   -5.1360    1.8320   -0.1960 C   0  0  0  0  0  0  0  0  0  0  0  0
   -4.8220    2.9310   -1.0550 O   0  0  0  0  0  0  0  0  0  0  0  0
    9.5110    0.6030   -0.0260 H   0  0  0  0  0  0  0  0  0  0  0  0
    9.1320   -1.1360    0.0280 H   0  0  0  0  0  0  0  0  0  0  0  0
    8.8510   -0.2100   -1.4660 H   0  0  0  0  0  0  0  0  0  0  0  0
    7.3840    0.1930    1.1800 H   0  0  0  0  0  0  0  0  0  0  0  0
    7.1030    1.1190   -0.3140 H   0  0  0  0  0  0  0  0  0  0  0  0
    6.4720   -0.9710   -1.4900 H   0  0  0  0  0  0  0  0  0  0  0  0
    6.7520   -1.8970    0.0040 H   0  0  0  0  0  0  0  0  0  0  0  0
    5.0040   -0.5680    1.1550 H   0  0  0  0  0  0  0  0  0  0  0  0
    4.7230    0.3580   -0.3390 H   0  0  0  0  0  0  0  0  0  0  0  0
    4.0920   -1.7320   -1.5150 H   0  0  0  0  0  0  0  0  0  0  0  0
    4.3730   -2.6580   -0.0210 H   0  0  0  0  0  0  0  0  0  0  0  0
    2.6420   -1.2410    1.1250 H   0  0  0  0  0  0  0  0  0  0  0  0
    1.0590   -2.1930   -1.1560 H   0  0  0  0  0  0  0  0  0  0  0  0
    2.2990   -3.3730   -0.6660 H   0  0  0  0  0  0  0  0  0  0  0  0
    1.1920   -3.8710    1.2480 H   0  0  0  0  0  0  0  0  0  0  0  0
    0.9680   -2.1510    1.6470 H   0  0  0  0  0  0  0  0  0  0  0  0
   -1.2440   -2.8880    1.3290 H   0  0  0  0  0  0  0  0  0  0  0  0
   -0.8350   -2.2080   -0.2640 H   0  0  0  0  0  0  0  0  0  0  0  0
   -0.7020   -4.2900   -1.2720 H   0  0  0  0  0  0  0  0  0  0  0  0
   -0.1890   -5.1010    0.2270 H   0  0  0  0  0  0  0  0  0  0  0  0
   -2.4940   -5.7670   -0.3690 H   0  0  0  0  0  0  0  0  0  0  0  0
   -2.4940   -4.8210    1.1430 H   0  0  0  0  0  0  0  0  0  0  0  0
   -3.5820   -3.8970   -1.4490 H   0  0  0  0  0  0  0  0  0  0  0  0
    1.0940    2.0190   -1.4080 H   0  0  0  0  0  0  0  0  0  0  0  0
   -0.4000    2.0760    1.1470 H   0  0  0  0  0  0  0  0  0  0  0  0
   -0.4580    3.9490   -1.2630 H   0  0  0  0  0  0  0  0  0  0  0  0
   -1.3720    4.2090    0.2420 H   0  0  0  0  0  0  0  0  0  0  0  0
    1.6600    3.9000    0.0880 H   0  0  0  0  0  0  0  0  0  0  0  0
   -0.0710    6.3870    0.4500 H   0  0  0  0  0  0  0  0  0  0  0  0
    1.7060    6.3370    0.5430 H   0  0  0  0  0  0  0  0  0  0  0  0
    0.8840    5.9890   -0.9980 H   0  0  0  0  0  0  0  0  0  0  0  0
   -0.2160    4.7580    2.3390 H   0  0  0  0  0  0  0  0  0  0  0  0
    0.6370    3.1980    2.2360 H   0  0  0  0  0  0  0  0  0  0  0  0
    1.5610    4.7070    2.4310 H   0  0  0  0  0  0  0  0  0  0  0  0
   -2.7360    1.6700    1.3180 H   0  0  0  0  0  0  0  0  0  0  0  0
   -3.7760    0.5290   -1.2470 H   0  0  0  0  0  0  0  0  0  0  0  0
   -3.6320   -0.5710    1.3850 H   0  0  0  0  0  0  0  0  0  0  0  0
   -5.3520   -0.2580    1.0490 H   0  0  0  0  0  0  0  0  0  0  0  0
   -5.4340   -2.0190   -0.3610 H   0  0  0  0  0  0  0  0  0  0  0  0
   -4.0870   -1.3550   -1.3160 H   0  0  0  0  0  0  0  0  0  0  0  0
   -6.0490    1.3490   -0.5430 H   0  0  0  0  0  0  0  0  0  0  0  0
   -5.2800    2.1960    0.8210 H   0  0  0  0  0  0  0  0  0  0  0  0
   -5.5090    3.6110   -1.0890 H   0  0  0  0  0  0  0  0  0  0  0  0
 30 31  1  0  0  0  0
 25 30  1  0  0  0  0
 28 29  2  0  0  0  0
 25 26  1  0  0  0  0
 24 25  1  0  0  0  0
 26 27  1  0  0  0  0
 27 28  1  0  0  0  0
 13 28  1  0  0  0  0
 12 13  1  0  0  0  0
 11 12  1  0  0  0  0
 18 24  1  0  0  0  0
 18 19  2  0  0  0  0
 10 11  1  0  0  0  0
 17 18  1  0  0  0  0
 17 20  1  0  0  0  0
 20 21  1  0  0  0  0
  9 10  1  0  0  0  0
 16 17  1  0  0  0  0
  8  9  1  0  0  0  0
 21 22  1  0  0  0  0
  7 16  1  0  0  0  0
 21 23  1  0  0  0  0
  7 15  2  0  0  0  0
  7 14  1  0  0  0  0
  6  8  1  0  0  0  0
  6 14  1  0  0  0  0
  5  6  1  0  0  0  0
  4  5  1  0  0  0  0
  3  4  1  0  0  0  0
  1  2  1  0  0  0  0
  2  3  1  0  0  0  0
  1 32  1  0  0  0  0
  1 33  1  0  0  0  0
  1 34  1  0  0  0  0
  2 35  1  0  0  0  0
  2 36  1  0  0  0  0
  3 37  1  0  0  0  0
  3 38  1  0  0  0  0
  4 39  1  0  0  0  0
  4 40  1  0  0  0  0
  5 41  1  0  0  0  0
  5 42  1  0  0  0  0
  6 43  1  0  0  0  0
 17 56  1  0  0  0  0
 20 57  1  0  0  0  0
 20 58  1  0  0  0  0
 21 59  1  0  0  0  0
 22 60  1  0  0  0  0
 22 61  1  0  0  0  0
 22 62  1  0  0  0  0
 23 63  1  0  0  0  0
 23 64  1  0  0  0  0
 23 65  1  0  0  0  0
 25 67  1  0  0  0  0
 26 68  1  0  0  0  0
 26 69  1  0  0  0  0
 27 70  1  0  0  0  0
 27 71  1  0  0  0  0
 30 72  1  0  0  0  0
 30 73  1  0  0  0  0
  8 44  1  0  0  0  0
  8 45  1  0  0  0  0
  9 46  1  0  0  0  0
  9 47  1  0  0  0  0
 10 48  1  0  0  0  0
 10 49  1  0  0  0  0
 11 50  1  0  0  0  0
 11 51  1  0  0  0  0
 12 52  1  0  0  0  0
 12 53  1  0  0  0  0
 16 55  1  0  0  0  0
 24 66  1  0  0  0  0
 13 54  1  0  0  0  0
 31 74  1  0  0  0  0
M  END
> <OPENEYE_ISO_SMILES>
CCCCC[C@@H]1CCCCCNC(=O)CC[C@H](NC(=O)[C@@H](NC(=O)O1)CC(C)C)CO

> <OPENEYE_INCHI>
InChI=1S/C23H43N3O5/c1-4-5-7-10-19-11-8-6-9-14-24-21(28)13-12-18(16-27)25-22(29)20(15-17(2)3)26-23(30)31-19/h17-20,27H,4-16H2,1-3H3,(H,24,28)(H,25,29)(H,26,30)/t18-,19+,20-/m0/s1

> <OPENEYE_INCHIKEY>
RKQBXGIWUUASPA-ZCNNSNEGSA-N

> <FORMULA>
C23H43N3O5

$$$$
