VWY
  -OEChem-02242320043D

 30 30  0     0  0  0  0  0  0999 V2000
   -3.9090    0.3420    0.0710 N   0  0  0  0  0  0  0  0  0  0  0  0
   -1.5580   -0.2760   -0.1970 C   0  0  0  0  0  0  0  0  0  0  0  0
   -1.1790    1.0650   -0.3130 C   0  0  0  0  0  0  0  0  0  0  0  0
    0.1450    1.3910   -0.5000 C   0  0  0  0  0  0  0  0  0  0  0  0
    1.1060    0.3870   -0.5740 C   0  0  0  0  0  0  0  0  0  0  0  0
    3.2040    0.4980    1.8640 C   0  0  0  0  0  0  0  0  0  0  0  0
   -0.5890   -1.2810   -0.2660 C   0  0  0  0  0  0  0  0  0  0  0  0
   -6.1610    1.2670    0.3020 C   0  0  0  0  0  0  0  0  0  0  0  0
   -5.3170   -0.0090    0.2710 C   0  0  0  0  0  0  0  0  0  0  0  0
   -2.9760   -0.6290    0.0040 C   0  0  0  0  0  0  0  0  0  0  0  0
   -3.3030   -1.7950    0.1100 O   0  0  0  0  0  0  0  0  0  0  0  0
    2.4430    0.7190   -0.7630 N   0  0  0  0  0  0  0  0  0  0  0  0
    3.6140    0.0070    0.1670 S   0  0  0  0  0  0  0  0  0  0  0  0
    4.8210    0.6260   -0.2540 O   0  0  0  0  0  0  0  0  0  0  0  0
    3.4040   -1.3870   -0.0140 O   0  0  0  0  0  0  0  0  0  0  0  0
    0.7330   -0.9490   -0.4580 C   0  0  0  0  0  0  0  0  0  0  0  0
   -3.6480    1.2720   -0.0180 H   0  0  0  0  0  0  0  0  0  0  0  0
   -1.9250    1.8440   -0.2560 H   0  0  0  0  0  0  0  0  0  0  0  0
    0.4380    2.4260   -0.5890 H   0  0  0  0  0  0  0  0  0  0  0  0
    2.2470    0.0610    2.1480 H   0  0  0  0  0  0  0  0  0  0  0  0
    3.9800    0.1430    2.5420 H   0  0  0  0  0  0  0  0  0  0  0  0
    3.1400    1.5840    1.9230 H   0  0  0  0  0  0  0  0  0  0  0  0
   -0.8780   -2.3180   -0.1720 H   0  0  0  0  0  0  0  0  0  0  0  0
   -7.2090    1.0070    0.4500 H   0  0  0  0  0  0  0  0  0  0  0  0
   -5.8260    1.9050    1.1200 H   0  0  0  0  0  0  0  0  0  0  0  0
   -6.0490    1.8000   -0.6430 H   0  0  0  0  0  0  0  0  0  0  0  0
   -5.6530   -0.6460   -0.5480 H   0  0  0  0  0  0  0  0  0  0  0  0
   -5.4290   -0.5410    1.2150 H   0  0  0  0  0  0  0  0  0  0  0  0
    2.6900    1.3690   -1.4400 H   0  0  0  0  0  0  0  0  0  0  0  0
    1.4810   -1.7260   -0.5160 H   0  0  0  0  0  0  0  0  0  0  0  0
  3  4  2  0  0  0  0
  4  5  1  0  0  0  0
  5 12  1  0  0  0  0
 12 13  1  0  0  0  0
 13 15  2  0  0  0  0
 13 14  2  0  0  0  0
  2  3  1  0  0  0  0
  5 16  2  0  0  0  0
  6 13  1  0  0  0  0
 10 11  2  0  0  0  0
  2 10  1  0  0  0  0
  2  7  2  0  0  0  0
  7 16  1  0  0  0  0
  1 10  1  0  0  0  0
  1  9  1  0  0  0  0
  8  9  1  0  0  0  0
  1 17  1  0  0  0  0
  3 18  1  0  0  0  0
  4 19  1  0  0  0  0
  6 20  1  0  0  0  0
  6 21  1  0  0  0  0
  6 22  1  0  0  0  0
  7 23  1  0  0  0  0
  8 24  1  0  0  0  0
  8 25  1  0  0  0  0
  8 26  1  0  0  0  0
  9 27  1  0  0  0  0
  9 28  1  0  0  0  0
 12 29  1  0  0  0  0
 16 30  1  0  0  0  0
M  END
> <OPENEYE_ISO_SMILES>
CCNC(=O)c1ccc(cc1)NS(=O)(=O)C

> <OPENEYE_INCHI>
InChI=1S/C10H14N2O3S/c1-3-11-10(13)8-4-6-9(7-5-8)12-16(2,14)15/h4-7,12H,3H2,1-2H3,(H,11,13)

> <OPENEYE_INCHIKEY>
GWMALJVYSHCCNB-UHFFFAOYSA-N

> <FORMULA>
C10H14N2O3S

$$$$
