@<TRIPOS>MOLECULE
/home/pku/3cl/gett_pdb/7B3O/7B3O_mol2/ligand/7B3O_NAG.pdb
 26 26 0 0 0
SMALL
GASTEIGER

@<TRIPOS>ATOM
      1  C1       -23.1300   -1.4120    3.7630 C.3     1  NAG1        0.1575
      2  C2       -21.9320   -0.7610    4.4250 C.3     1  NAG1        0.0863
      3  C3       -22.1900    0.7250    4.6860 C.3     1  NAG1        0.1079
      4  C4       -22.6280    1.4330    3.4120 C.3     1  NAG1        0.1494
      5  C5       -23.8540    0.7270    2.8420 C.3     1  NAG1        0.1142
      6  C6       -24.3280    1.3190    1.5330 C.3     1  NAG1        0.0731
      7  C7       -20.5130   -2.2130    5.8090 C.2     1  NAG1        0.2103
      8  C8       -20.2970   -2.8040    7.1700 C.3     1  NAG1        0.0122
      9  N2       -21.5900   -1.4350    5.6700 N.am    1  NAG1       -0.3071
     10  O3       -21.0060    1.3320    5.1950 O.3     1  NAG1       -0.3871
     11  O4       -22.9670    2.7830    3.6980 O.3     1  NAG1       -0.2256
     12  O5       -23.5380   -0.6500    2.5940 O.3     1  NAG1       -0.3571
     13  O6       -23.3620    1.1680    0.5000 O.3     1  NAG1       -0.3924
     14  O7       -19.7500   -2.4380    4.8760 O.2     1  NAG1       -0.2761
     15  H2       -21.1810   -0.8300    3.8060 H       1  NAG1        0.0555
     16  H3       -22.9020    0.8030    5.3490 H       1  NAG1        0.0641
     17  H4       -21.9000    1.4170    2.7610 H       1  NAG1        0.0682
     18  H5       -24.5840    0.7760    3.4870 H       1  NAG1        0.0647
     19  H61      -24.5070    2.2690    1.6620 H       1  NAG1        0.0584
     20  H62      -25.1520    0.8720    1.2630 H       1  NAG1        0.0584
     21  H81      -21.0640   -3.3590    7.4080 H       1  NAG1        0.0322
     22  H82      -20.1990   -2.0870    7.8240 H       1  NAG1        0.0322
     23  H83      -19.4890   -3.3520    7.1630 H       1  NAG1        0.0322
     24  HN2      -22.1380   -1.3200    6.3900 H       1  NAG1        0.1492
     25  HO3      -20.6390    1.8390    4.5660 H       1  NAG1        0.2100
     26  HO6      -22.8860    0.4320    0.6460 H       1  NAG1        0.2095
@<TRIPOS>BOND
     1    13    26    1
     2    13     6    1
     3    20     6    1
     4     6    19    1
     5     6     5    1
     6    12     5    1
     7    12     1    1
     8    17     4    1
     9     5     4    1
    10     5    18    1
    11     4    11    1
    12     4     3    1
    13     1     2    1
    14    15     2    1
    15     2     3    1
    16     2     9    1
    17    25    10    1
    18     3    10    1
    19     3    16    1
    20    14     7    2
    21     9     7   am
    22     9    24    1
    23     7     8    1
    24    23     8    1
    25     8    21    1
    26     8    22    1
