S1X
  -OEChem-02242320043D

 47 50  0     1  0  0  0  0  0999 V2000
    7.3080   -0.9920    1.1790 C   0  0  0  0  0  0  0  0  0  0  0  0
    6.7380    0.3050    0.6020 C   0  0  0  0  0  0  0  0  0  0  0  0
    7.2930    0.2810    2.0280 C   0  0  0  0  0  0  0  0  0  0  0  0
    5.2430    0.3960    0.4380 C   0  0  0  0  0  0  0  0  0  0  0  0
    3.3140    0.3980   -0.9480 C   0  0  0  0  0  0  0  0  0  0  0  0
    2.7210    1.0780   -2.0070 C   0  0  0  0  0  0  0  0  0  0  0  0
    1.3530    1.0570   -2.1600 C   0  0  0  0  0  0  0  0  0  0  0  0
    0.5600    0.3510   -1.2520 C   0  0  0  0  0  0  0  0  0  0  0  0
    2.5280   -0.3100   -0.0440 C   0  0  0  0  0  0  0  0  0  0  0  0
   -2.6840   -2.7500    0.0130 C   0  0  0  0  0  0  0  0  0  0  0  0
   -3.7110   -1.6480   -0.0370 C   0  0  1  0  0  0  0  0  0  0  0  0
   -4.0590   -1.1570    1.3840 C   0  0  0  0  0  0  0  0  0  0  0  0
   -4.2950    0.3320    1.2420 C   0  0  0  0  0  0  0  0  0  0  0  0
   -3.7580    0.7780    0.0490 C   0  0  0  0  0  0  0  0  0  0  0  0
   -3.1260   -0.3810   -0.6970 C   0  0  1  0  0  0  0  0  0  0  0  0
   -0.9070    0.3250   -1.4130 C   0  0  0  0  0  0  0  0  0  0  0  0
    1.1590   -0.3320   -0.1890 C   0  0  0  0  0  0  0  0  0  0  0  0
   -3.8560    2.1170   -0.2930 C   0  0  0  0  0  0  0  0  0  0  0  0
   -4.4880    3.0060    0.5540 C   0  0  0  0  0  0  0  0  0  0  0  0
   -5.0250    2.5590    1.7470 C   0  0  0  0  0  0  0  0  0  0  0  0
   -4.9260    1.2260    2.0910 C   0  0  0  0  0  0  0  0  0  0  0  0
   -1.6700   -0.3560   -0.5360 N   0  0  0  0  0  0  0  0  0  0  0  0
    4.7000    0.4220   -0.7950 N   0  0  0  0  0  0  0  0  0  0  0  0
   -2.5770   -3.6140   -1.0080 O   0  0  0  0  0  0  0  0  0  0  0  0
    4.5280    0.4470    1.4160 O   0  0  0  0  0  0  0  0  0  0  0  0
   -1.4270    0.9190   -2.3380 O   0  0  0  0  0  0  0  0  0  0  0  0
   -1.9570   -2.8540    0.9720 O   0  0  0  0  0  0  0  0  0  0  0  0
    6.6010   -1.7800    1.4400 H   0  0  0  0  0  0  0  0  0  0  0  0
    8.2710   -1.3320    0.7990 H   0  0  0  0  0  0  0  0  0  0  0  0
    7.3260    0.8190   -0.1580 H   0  0  0  0  0  0  0  0  0  0  0  0
    6.5760    0.3310    2.8480 H   0  0  0  0  0  0  0  0  0  0  0  0
    8.2460    0.7780    2.2060 H   0  0  0  0  0  0  0  0  0  0  0  0
    3.3340    1.6230   -2.7090 H   0  0  0  0  0  0  0  0  0  0  0  0
    0.8930    1.5860   -2.9820 H   0  0  0  0  0  0  0  0  0  0  0  0
    2.9920   -0.8410    0.7740 H   0  0  0  0  0  0  0  0  0  0  0  0
   -4.6070   -1.9790   -0.5620 H   0  0  0  0  0  0  0  0  0  0  0  0
   -4.9620   -1.6500    1.7450 H   0  0  0  0  0  0  0  0  0  0  0  0
   -3.2280   -1.3460    2.0640 H   0  0  0  0  0  0  0  0  0  0  0  0
   -3.3910   -0.3410   -1.7530 H   0  0  0  0  0  0  0  0  0  0  0  0
    0.5500   -0.8780    0.5150 H   0  0  0  0  0  0  0  0  0  0  0  0
   -3.4370    2.4660   -1.2240 H   0  0  0  0  0  0  0  0  0  0  0  0
   -4.5630    4.0490    0.2850 H   0  0  0  0  0  0  0  0  0  0  0  0
   -5.5180    3.2540    2.4120 H   0  0  0  0  0  0  0  0  0  0  0  0
   -5.3470    0.8770    3.0230 H   0  0  0  0  0  0  0  0  0  0  0  0
   -1.2550   -0.8300    0.2020 H   0  0  0  0  0  0  0  0  0  0  0  0
    5.2730    0.4560   -1.5770 H   0  0  0  0  0  0  0  0  0  0  0  0
   -1.9040   -4.3040   -0.9300 H   0  0  0  0  0  0  0  0  0  0  0  0
 20 21  2  0  0  0  0
 19 20  1  0  0  0  0
 13 21  1  0  0  0  0
 18 19  2  0  0  0  0
 13 14  2  0  0  0  0
 12 13  1  0  0  0  0
 14 18  1  0  0  0  0
 14 15  1  0  0  0  0
 11 12  1  0  0  0  0
 16 26  2  0  0  0  0
 11 15  1  0  0  0  0
 15 22  1  0  0  0  0
 10 11  1  0  0  0  0
 16 22  1  0  0  0  0
  8 16  1  0  0  0  0
 10 27  2  0  0  0  0
 10 24  1  0  0  0  0
  7  8  2  0  0  0  0
  6  7  1  0  0  0  0
  8 17  1  0  0  0  0
  5  6  2  0  0  0  0
  9 17  2  0  0  0  0
  5  9  1  0  0  0  0
  5 23  1  0  0  0  0
  4 25  2  0  0  0  0
  4 23  1  0  0  0  0
  2  4  1  0  0  0  0
  2  3  1  0  0  0  0
  1  2  1  0  0  0  0
  1  3  1  0  0  0  0
  1 28  1  0  0  0  0
  1 29  1  0  0  0  0
  2 30  1  0  0  0  0
  3 31  1  0  0  0  0
  3 32  1  0  0  0  0
  6 33  1  0  0  0  0
  7 34  1  0  0  0  0
  9 35  1  0  0  0  0
 11 36  1  0  0  0  0
 12 37  1  0  0  0  0
 12 38  1  0  0  0  0
 15 39  1  0  0  0  0
 17 40  1  0  0  0  0
 18 41  1  0  0  0  0
 19 42  1  0  0  0  0
 20 43  1  0  0  0  0
 21 44  1  0  0  0  0
 22 45  1  0  0  0  0
 23 46  1  0  0  0  0
 24 47  1  0  0  0  0
M  END
> <OPENEYE_ISO_SMILES>
c1ccc2c(c1)C[C@@H]([C@@H]2NC(=O)c3ccc(cc3)NC(=O)C4CC4)C(=O)O

> <OPENEYE_INCHI>
InChI=1S/C21H20N2O4/c24-19(12-5-6-12)22-15-9-7-13(8-10-15)20(25)23-18-16-4-2-1-3-14(16)11-17(18)21(26)27/h1-4,7-10,12,17-18H,5-6,11H2,(H,22,24)(H,23,25)(H,26,27)/t17-,18+/m0/s1

> <OPENEYE_INCHIKEY>
YTJWUPQJUKAHJM-ZWKOTPCHSA-N

> <FORMULA>
C21H20N2O4

$$$$
