S2R
  -OEChem-02242320043D

 47 50  0     1  0  0  0  0  0999 V2000
    2.4790    2.7150    0.5870 C   0  0  0  0  0  0  0  0  0  0  0  0
    3.5940    1.7040    0.5110 C   0  0  2  0  0  0  0  0  0  0  0  0
    4.0900    1.5430   -0.9420 C   0  0  0  0  0  0  0  0  0  0  0  0
    4.4470    0.0790   -1.0790 C   0  0  0  0  0  0  0  0  0  0  0  0
    3.8640   -0.6420   -0.0530 C   0  0  0  0  0  0  0  0  0  0  0  0
    3.0750    0.2890    0.8430 C   0  0  2  0  0  0  0  0  0  0  0  0
    0.8950   -0.7540    1.1480 C   0  0  0  0  0  0  0  0  0  0  0  0
   -0.5470   -0.8540    0.8480 C   0  0  0  0  0  0  0  0  0  0  0  0
   -1.1360    0.0250   -0.0640 C   0  0  0  0  0  0  0  0  0  0  0  0
   -2.4810   -0.0710   -0.3420 C   0  0  0  0  0  0  0  0  0  0  0  0
   -3.2540   -1.0420    0.2860 C   0  0  0  0  0  0  0  0  0  0  0  0
   -5.3320   -0.0210   -0.2420 C   0  0  0  0  0  0  0  0  0  0  0  0
   -6.8230   -0.1120   -0.4450 C   0  0  0  0  0  0  0  0  0  0  0  0
   -7.3640    0.1770   -1.8470 C   0  0  0  0  0  0  0  0  0  0  0  0
   -7.5790    1.1890   -0.7200 C   0  0  0  0  0  0  0  0  0  0  0  0
   -2.6720   -1.9190    1.1960 C   0  0  0  0  0  0  0  0  0  0  0  0
   -1.3260   -1.8330    1.4720 C   0  0  0  0  0  0  0  0  0  0  0  0
    4.0550   -2.0110    0.0230 C   0  0  0  0  0  0  0  0  0  0  0  0
    4.8270   -2.6590   -0.9230 C   0  0  0  0  0  0  0  0  0  0  0  0
    5.4090   -1.9380   -1.9480 C   0  0  0  0  0  0  0  0  0  0  0  0
    5.2200   -0.5720   -2.0250 C   0  0  0  0  0  0  0  0  0  0  0  0
    1.6440    0.1900    0.5450 N   0  0  0  0  0  0  0  0  0  0  0  0
   -4.6160   -1.1360    0.0040 N   0  0  0  0  0  0  0  0  0  0  0  0
    1.3850    2.3800    0.9760 O   0  0  0  0  0  0  0  0  0  0  0  0
   -4.7770    1.0560   -0.2990 O   0  0  0  0  0  0  0  0  0  0  0  0
    1.4060   -1.5240    1.9380 O   0  0  0  0  0  0  0  0  0  0  0  0
    2.7030    3.9890    0.2290 O   0  0  0  0  0  0  0  0  0  0  0  0
    4.4150    1.9840    1.1710 H   0  0  0  0  0  0  0  0  0  0  0  0
    3.2980    1.8060   -1.6430 H   0  0  0  0  0  0  0  0  0  0  0  0
    4.9680    2.1660   -1.1130 H   0  0  0  0  0  0  0  0  0  0  0  0
    3.2620    0.0540    1.8900 H   0  0  0  0  0  0  0  0  0  0  0  0
   -0.5360    0.7800   -0.5510 H   0  0  0  0  0  0  0  0  0  0  0  0
   -2.9360    0.6090   -1.0470 H   0  0  0  0  0  0  0  0  0  0  0  0
   -7.3320   -0.8760    0.1440 H   0  0  0  0  0  0  0  0  0  0  0  0
   -6.6410    0.4330   -2.6220 H   0  0  0  0  0  0  0  0  0  0  0  0
   -8.2280   -0.3970   -2.1810 H   0  0  0  0  0  0  0  0  0  0  0  0
   -8.5860    1.2820   -0.3120 H   0  0  0  0  0  0  0  0  0  0  0  0
   -6.9990    2.1110   -0.7530 H   0  0  0  0  0  0  0  0  0  0  0  0
   -3.2750   -2.6720    1.6810 H   0  0  0  0  0  0  0  0  0  0  0  0
   -0.8730   -2.5170    2.1740 H   0  0  0  0  0  0  0  0  0  0  0  0
    3.6000   -2.5750    0.8240 H   0  0  0  0  0  0  0  0  0  0  0  0
    4.9730   -3.7270   -0.8610 H   0  0  0  0  0  0  0  0  0  0  0  0
    6.0130   -2.4430   -2.6880 H   0  0  0  0  0  0  0  0  0  0  0  0
    5.6760   -0.0100   -2.8270 H   0  0  0  0  0  0  0  0  0  0  0  0
    1.2360    0.8030   -0.0850 H   0  0  0  0  0  0  0  0  0  0  0  0
   -5.0490   -2.0040   -0.0170 H   0  0  0  0  0  0  0  0  0  0  0  0
    1.9580    4.6020    0.2990 H   0  0  0  0  0  0  0  0  0  0  0  0
 19 20  2  0  0  0  0
 18 19  1  0  0  0  0
 20 21  1  0  0  0  0
  5 18  2  0  0  0  0
  4 21  2  0  0  0  0
  4  5  1  0  0  0  0
  5  6  1  0  0  0  0
  3  4  1  0  0  0  0
  2  6  1  0  0  0  0
  6 22  1  0  0  0  0
  2  3  1  0  0  0  0
  1  2  1  0  0  0  0
  7 26  2  0  0  0  0
  7 22  1  0  0  0  0
  7  8  1  0  0  0  0
  1 24  2  0  0  0  0
  1 27  1  0  0  0  0
  8  9  2  0  0  0  0
  9 10  1  0  0  0  0
  8 17  1  0  0  0  0
 16 17  2  0  0  0  0
 10 11  2  0  0  0  0
 11 16  1  0  0  0  0
 11 23  1  0  0  0  0
 12 25  2  0  0  0  0
 12 23  1  0  0  0  0
 12 13  1  0  0  0  0
 13 15  1  0  0  0  0
 13 14  1  0  0  0  0
 14 15  1  0  0  0  0
  2 28  1  0  0  0  0
  3 29  1  0  0  0  0
  3 30  1  0  0  0  0
  6 31  1  0  0  0  0
  9 32  1  0  0  0  0
 10 33  1  0  0  0  0
 13 34  1  0  0  0  0
 14 35  1  0  0  0  0
 14 36  1  0  0  0  0
 15 37  1  0  0  0  0
 15 38  1  0  0  0  0
 16 39  1  0  0  0  0
 17 40  1  0  0  0  0
 18 41  1  0  0  0  0
 19 42  1  0  0  0  0
 20 43  1  0  0  0  0
 21 44  1  0  0  0  0
 22 45  1  0  0  0  0
 23 46  1  0  0  0  0
 27 47  1  0  0  0  0
M  END
> <OPENEYE_ISO_SMILES>
c1ccc2c(c1)C[C@H]([C@H]2NC(=O)c3ccc(cc3)NC(=O)C4CC4)C(=O)O

> <OPENEYE_INCHI>
InChI=1S/C21H20N2O4/c24-19(12-5-6-12)22-15-9-7-13(8-10-15)20(25)23-18-16-4-2-1-3-14(16)11-17(18)21(26)27/h1-4,7-10,12,17-18H,5-6,11H2,(H,22,24)(H,23,25)(H,26,27)/t17-,18+/m1/s1

> <OPENEYE_INCHIKEY>
YTJWUPQJUKAHJM-MSOLQXFVSA-N

> <FORMULA>
C21H20N2O4

$$$$
