W6P
  -OEChem-02242320043D

 17 18  0     0  0  0  0  0  0999 V2000
   -2.0210   -0.0080   -0.0020 C   0  0  0  0  0  0  0  0  0  0  0  0
   -1.1790    1.2500    0.0010 C   0  0  0  0  0  0  0  0  0  0  0  0
    0.2440    0.7400    0.0040 C   0  0  0  0  0  0  0  0  0  0  0  0
    1.4660    1.3730    0.0010 C   0  0  0  0  0  0  0  0  0  0  0  0
    2.6310    0.6260   -0.0020 C   0  0  0  0  0  0  0  0  0  0  0  0
    2.5620   -0.7550   -0.0030 C   0  0  0  0  0  0  0  0  0  0  0  0
    1.3380   -1.3930   -0.0010 C   0  0  0  0  0  0  0  0  0  0  0  0
    0.1610   -0.6470    0.0030 C   0  0  0  0  0  0  0  0  0  0  0  0
   -1.1740   -1.0510    0.0050 N   0  0  0  0  0  0  0  0  0  0  0  0
   -3.2330   -0.0630   -0.0040 O   0  0  0  0  0  0  0  0  0  0  0  0
   -1.3710    1.8400   -0.8950 H   0  0  0  0  0  0  0  0  0  0  0  0
   -1.3770    1.8410    0.8950 H   0  0  0  0  0  0  0  0  0  0  0  0
    1.5150    2.4520    0.0020 H   0  0  0  0  0  0  0  0  0  0  0  0
    3.5910    1.1200   -0.0040 H   0  0  0  0  0  0  0  0  0  0  0  0
    3.4710   -1.3380   -0.0050 H   0  0  0  0  0  0  0  0  0  0  0  0
    1.2930   -2.4720   -0.0020 H   0  0  0  0  0  0  0  0  0  0  0  0
   -1.4590   -1.9780    0.0050 H   0  0  0  0  0  0  0  0  0  0  0  0
  5  6  2  0  0  0  0
  4  5  1  0  0  0  0
  6  7  1  0  0  0  0
  3  4  2  0  0  0  0
  7  8  2  0  0  0  0
  3  8  1  0  0  0  0
  2  3  1  0  0  0  0
  8  9  1  0  0  0  0
  1  2  1  0  0  0  0
  1  9  1  0  0  0  0
  1 10  2  0  0  0  0
  2 11  1  0  0  0  0
  2 12  1  0  0  0  0
  4 13  1  0  0  0  0
  5 14  1  0  0  0  0
  6 15  1  0  0  0  0
  7 16  1  0  0  0  0
  9 17  1  0  0  0  0
M  END
> <OPENEYE_ISO_SMILES>
c1ccc2c(c1)CC(=O)N2

> <OPENEYE_INCHI>
InChI=1S/C8H7NO/c10-8-5-6-3-1-2-4-7(6)9-8/h1-4H,5H2,(H,9,10)

> <OPENEYE_INCHIKEY>
JYGFTBXVXVMTGB-UHFFFAOYSA-N

> <FORMULA>
C8H7NO

$$$$
