REK
  -OEChem-02242320043D

 46 47  0     1  0  0  0  0  0999 V2000
    3.1270   -0.0060   -0.4510 C   0  0  1  0  0  0  0  0  0  0  0  0
    3.6510    0.9710   -1.4710 C   0  0  0  0  0  0  0  0  0  0  0  0
    4.2870   -0.8300    0.1090 C   0  0  0  0  0  0  0  0  0  0  0  0
    3.7490   -1.8890    1.0380 C   0  0  0  0  0  0  0  0  0  0  0  0
    0.0540    1.7640    1.7650 C   0  0  0  0  0  0  0  0  0  0  0  0
   -1.8520    2.6620    0.6230 C   0  0  2  0  0  0  0  0  0  0  0  0
   -1.9950    4.0570    1.2340 C   0  0  0  0  0  0  0  0  0  0  0  0
   -3.2160    2.1840    0.1190 C   0  0  0  0  0  0  0  0  0  0  0  0
   -3.0420   -0.3390    0.0130 C   0  0  0  0  0  0  0  0  0  0  0  0
   -3.1010   -2.0820    1.5090 C   0  0  0  0  0  0  0  0  0  0  0  0
   -2.8170   -2.6260   -0.7160 C   0  0  0  0  0  0  0  0  0  0  0  0
   -2.8710   -1.2590   -1.0360 C   0  0  0  0  0  0  0  0  0  0  0  0
   -2.9030    0.7230   -1.9150 C   0  0  0  0  0  0  0  0  0  0  0  0
    2.4770    0.7300    0.6420 N   0  0  0  0  0  0  0  0  0  0  0  0
   -3.0590    0.9020   -0.5720 N   0  0  0  0  0  0  0  0  0  0  0  0
   -3.1520   -0.7910    1.2570 N   0  0  0  0  0  0  0  0  0  0  0  0
   -2.9410   -2.9840    0.5580 N   0  0  0  0  0  0  0  0  0  0  0  0
   -2.6510   -3.5790   -1.7060 N   0  0  0  0  0  0  0  0  0  0  0  0
   -2.7930   -0.5450   -2.1840 N   0  0  0  0  0  0  0  0  0  0  0  0
    0.5610    1.5600   -0.8830 O   0  0  0  0  0  0  0  0  0  0  0  0
    3.4990    2.1580   -1.3060 O   0  0  0  0  0  0  0  0  0  0  0  0
    4.2870    0.5220   -2.5650 O   0  0  0  0  0  0  0  0  0  0  0  0
    2.5600   -1.9740    1.2320 O   0  0  0  0  0  0  0  0  0  0  0  0
    4.5920   -2.7360    1.6490 O   0  0  0  0  0  0  0  0  0  0  0  0
   -1.3670    1.7550    1.6150 O   0  0  0  0  0  0  0  0  0  0  0  0
    0.1820   -0.6310    0.3110 O   0  0  0  0  0  0  0  0  0  0  0  0
    0.8170    0.8460    0.3880 P   0  0  2  0  0  0  0  0  0  0  0  0
    2.4030   -0.6700   -0.9220 H   0  0  0  0  0  0  0  0  0  0  0  0
    4.8240   -1.3060   -0.7110 H   0  0  0  0  0  0  0  0  0  0  0  0
    4.9660   -0.1770    0.6580 H   0  0  0  0  0  0  0  0  0  0  0  0
    0.4130    2.7930    1.7590 H   0  0  0  0  0  0  0  0  0  0  0  0
    0.3220    1.2920    2.7100 H   0  0  0  0  0  0  0  0  0  0  0  0
   -1.1500    2.7000   -0.2090 H   0  0  0  0  0  0  0  0  0  0  0  0
   -1.0110    4.4340    1.5130 H   0  0  0  0  0  0  0  0  0  0  0  0
   -2.4480    4.7290    0.5050 H   0  0  0  0  0  0  0  0  0  0  0  0
   -2.6280    4.0030    2.1200 H   0  0  0  0  0  0  0  0  0  0  0  0
   -3.8930    2.0610    0.9640 H   0  0  0  0  0  0  0  0  0  0  0  0
   -3.6260    2.9210   -0.5720 H   0  0  0  0  0  0  0  0  0  0  0  0
   -3.1970   -2.4160    2.5320 H   0  0  0  0  0  0  0  0  0  0  0  0
   -2.8760    1.5170   -2.6470 H   0  0  0  0  0  0  0  0  0  0  0  0
    2.6770    0.3030    1.5350 H   0  0  0  0  0  0  0  0  0  0  0  0
   -2.5690   -3.3050   -2.6330 H   0  0  0  0  0  0  0  0  0  0  0  0
   -2.6150   -4.5190   -1.4720 H   0  0  0  0  0  0  0  0  0  0  0  0
    4.6060    1.1860   -3.1910 H   0  0  0  0  0  0  0  0  0  0  0  0
    4.2000   -3.3980    2.2360 H   0  0  0  0  0  0  0  0  0  0  0  0
    0.3110   -1.1580    1.1110 H   0  0  0  0  0  0  0  0  0  0  0  0
  2 21  2  0  0  0  0
 20 27  2  0  0  0  0
  2 22  1  0  0  0  0
  1  2  1  0  0  0  0
  1 14  1  0  0  0  0
  1  3  1  0  0  0  0
 26 27  1  0  0  0  0
  5 27  1  0  0  0  0
 14 27  1  0  0  0  0
  5 25  1  0  0  0  0
  3  4  1  0  0  0  0
  4 23  2  0  0  0  0
  6  7  1  0  0  0  0
  6  8  1  0  0  0  0
  8 15  1  0  0  0  0
  4 24  1  0  0  0  0
  6 25  1  0  0  0  0
  9 15  1  0  0  0  0
 13 15  1  0  0  0  0
  9 16  2  0  0  0  0
 10 16  1  0  0  0  0
  9 12  1  0  0  0  0
 10 17  2  0  0  0  0
 13 19  2  0  0  0  0
 12 19  1  0  0  0  0
 11 12  2  0  0  0  0
 11 17  1  0  0  0  0
 11 18  1  0  0  0  0
  1 28  1  0  0  0  0
  3 29  1  0  0  0  0
  3 30  1  0  0  0  0
  5 31  1  0  0  0  0
  5 32  1  0  0  0  0
  6 33  1  0  0  0  0
  7 34  1  0  0  0  0
  7 35  1  0  0  0  0
  7 36  1  0  0  0  0
  8 37  1  0  0  0  0
  8 38  1  0  0  0  0
 10 39  1  0  0  0  0
 13 40  1  0  0  0  0
 14 41  1  0  0  0  0
 18 42  1  0  0  0  0
 18 43  1  0  0  0  0
 22 44  1  0  0  0  0
 24 45  1  0  0  0  0
 26 46  1  0  0  0  0
M  END
> <OPENEYE_ISO_SMILES>
C[C@H](Cn1cnc2c1ncnc2N)OC[P@@](=O)(N[C@H](CC(=O)O)C(=O)O)O

> <OPENEYE_INCHI>
InChI=1S/C13H19N6O7P/c1-7(3-19-5-17-10-11(14)15-4-16-12(10)19)26-6-27(24,25)18-8(13(22)23)2-9(20)21/h4-5,7-8H,2-3,6H2,1H3,(H,20,21)(H,22,23)(H2,14,15,16)(H2,18,24,25)/t7-,8-/m1/s1

> <OPENEYE_INCHIKEY>
YBOHKRVDTZQCCV-HTQZYQBOSA-N

> <FORMULA>
C13H19N6O7P

$$$$
