@<TRIPOS>MOLECULE
/home/pku/3cl/gett_pdb/7O1Y/7O1Y_mol2/ligand/7O1Y_UYQ.pdb
 34 34 0 0 0
SMALL
GASTEIGER

@<TRIPOS>ATOM
      1  N1        44.9280  -33.3610  -12.9630 N.pl3 601  UYQ601     -0.2902
      2  C7        45.2970  -38.5910   -3.5040 C.cat 601  UYQ601      0.3593
      3  C8        48.5210  -37.6540   -8.3780 C.ar  601  UYQ601     -0.0563
      4  N2        46.9460  -34.4340  -13.1990 N.pl3 601  UYQ601     -0.1576
      5  C9        48.5990  -37.1130   -9.6500 C.ar  601  UYQ601     -0.0527
      6  C1        47.6820  -35.6990  -11.4840 C.2   601  UYQ601      0.0697
      7  C5        47.4300  -37.3940   -7.5540 C.ar  601  UYQ601     -0.0237
      8  C6        47.3110  -38.0670   -6.2640 C.3   601  UYQ601      0.1107
      9  N3        46.7580  -34.9410  -11.9280 N.2   601  UYQ601     -0.1194
     10  C4        46.4220  -36.5700   -8.0470 C.ar  601  UYQ601     -0.0563
     11  C3        46.5020  -36.0270   -9.3180 C.ar  601  UYQ601     -0.0527
     12  C2        47.5940  -36.2850  -10.1420 C.ar  601  UYQ601     -0.0040
     13  N4        46.2450  -38.0100   -5.5630 N.3   601  UYQ601     -0.0622
     14  N         46.1290  -33.1230  -14.9100 N.pl3 601  UYQ601     -0.2902
     15  C         45.9880  -33.6320  -13.6950 C.cat 601  UYQ601      0.3645
     16  N5        46.3690  -38.5920   -4.3190 N.pl3 601  UYQ601     -0.1850
     17  N6        44.1350  -38.1440   -3.9430 N.pl3 601  UYQ601     -0.2905
     18  N7        45.4630  -38.9430   -2.2460 N.pl3 601  UYQ601     -0.2905
     19  H4        44.1740  -32.7620  -13.2850 H     601  UYQ601      0.2546
     20  H5        44.7940  -33.7310  -12.0280 H     601  UYQ601      0.2546
     21  H14       49.3360  -38.2900   -8.0350 H     601  UYQ601      0.0621
     22  H6        47.7690  -34.6470  -13.7540 H     601  UYQ601      0.2921
     23  H15       49.4690  -37.3510  -10.2600 H     601  UYQ601      0.0624
     24  H7        48.5890  -35.9820  -12.0150 H     601  UYQ601      0.0866
     25  H10       48.2190  -38.6040   -5.9930 H     601  UYQ601      0.0580
     26  H9        45.5510  -36.3390   -7.4370 H     601  UYQ601      0.0621
     27  H8        45.6900  -35.3890   -9.6630 H     601  UYQ601      0.0624
     28  H1        46.9400  -33.3150  -15.4890 H     601  UYQ601      0.2546
     29  H11       47.2380  -39.0150   -4.0070 H     601  UYQ601      0.2845
     30  H2        43.9680  -37.8630   -4.9040 H     601  UYQ601      0.2546
     31  H13       46.3490  -39.2890   -1.8910 H     601  UYQ601      0.2546
     32  H12       44.7150  -38.8890   -1.5620 H     601  UYQ601      0.2546
     33  H         45.4340  -32.5130  -15.3280 H     601  UYQ601      0.2546
     34  H3        43.3140  -38.0440   -3.3550 H     601  UYQ601      0.2546
@<TRIPOS>BOND
     1    28    14    1
     2    33    14    1
     3    14    15    2
     4    22     4    1
     5    15     4    1
     6    15     1    1
     7    19     1    1
     8     4     9    1
     9     1    20    1
    10    24     6    1
    11     9     6    2
    12     6    12    1
    13    23     5    1
    14    12     5   ar
    15    12    11   ar
    16    27    11    1
    17     5     3   ar
    18    11    10   ar
    19     3    21    1
    20     3     7   ar
    21    10     7   ar
    22    10    26    1
    23     7     8    1
    24     8    25    1
    25     8    13    1
    26    13    16    1
    27    30    17    1
    28    16    29    1
    29    16     2    1
    30    17     2    2
    31    17    34    1
    32     2    18    1
    33    18    31    1
    34    18    32    1
