LQV
  -OEChem-02242320033D

 29 30  0     1  0  0  0  0  0999 V2000
   -0.0910    0.8350   -0.5170 N   0  0  0  0  0  0  0  0  0  0  0  0
    2.2070    1.4960   -0.2290 C   0  0  0  0  0  0  0  0  0  0  0  0
    1.2380    0.4990   -0.2610 C   0  0  0  0  0  0  0  0  0  0  0  0
   -1.0500   -0.1090   -0.4490 C   0  0  0  0  0  0  0  0  0  0  0  0
   -2.4980    0.2750   -0.6100 C   0  0  2  0  0  0  0  0  0  0  0  0
   -2.9350    1.1760    0.5650 C   0  0  0  0  0  0  0  0  0  0  0  0
   -4.2180   -0.8440    0.5360 C   0  0  0  0  0  0  0  0  0  0  0  0
    5.2420   -0.6160    0.5140 C   0  0  0  0  0  0  0  0  0  0  0  0
    3.8240   -0.1910    0.2320 C   0  0  0  0  0  0  0  0  0  0  0  0
    3.5220    1.1480    0.0210 C   0  0  0  0  0  0  0  0  0  0  0  0
   -0.7480   -1.2680   -0.2590 O   0  0  0  0  0  0  0  0  0  0  0  0
   -4.3720    0.6640    0.8570 C   0  0  0  0  0  0  0  0  0  0  0  0
   -3.3180   -0.8990   -0.5830 O   0  0  0  0  0  0  0  0  0  0  0  0
    1.5650   -0.7660   -0.0500 N   0  0  0  0  0  0  0  0  0  0  0  0
    2.8100   -1.1270    0.1970 C   0  0  0  0  0  0  0  0  0  0  0  0
   -0.3250    1.7490   -0.7410 H   0  0  0  0  0  0  0  0  0  0  0  0
    1.9370    2.5270   -0.4020 H   0  0  0  0  0  0  0  0  0  0  0  0
   -2.6380    0.8020   -1.5540 H   0  0  0  0  0  0  0  0  0  0  0  0
   -2.2870    1.0280    1.4290 H   0  0  0  0  0  0  0  0  0  0  0  0
   -2.9500    2.2240    0.2650 H   0  0  0  0  0  0  0  0  0  0  0  0
   -3.7920   -1.3710    1.3900 H   0  0  0  0  0  0  0  0  0  0  0  0
   -5.1820   -1.2760    0.2680 H   0  0  0  0  0  0  0  0  0  0  0  0
    5.7440   -0.8530   -0.4240 H   0  0  0  0  0  0  0  0  0  0  0  0
    5.7720    0.1950    1.0140 H   0  0  0  0  0  0  0  0  0  0  0  0
    5.2370   -1.4970    1.1560 H   0  0  0  0  0  0  0  0  0  0  0  0
    4.2960    1.9000    0.0520 H   0  0  0  0  0  0  0  0  0  0  0  0
   -4.6390    0.8180    1.9020 H   0  0  0  0  0  0  0  0  0  0  0  0
   -5.0980    1.1340    0.1940 H   0  0  0  0  0  0  0  0  0  0  0  0
    3.0400   -2.1690    0.3600 H   0  0  0  0  0  0  0  0  0  0  0  0
  8  9  1  0  0  0  0
  9 15  2  0  0  0  0
  9 10  1  0  0  0  0
 14 15  1  0  0  0  0
  2 10  2  0  0  0  0
  3 14  2  0  0  0  0
  2  3  1  0  0  0  0
  1  3  1  0  0  0  0
  1  4  1  0  0  0  0
  4 11  2  0  0  0  0
  4  5  1  0  0  0  0
  6 12  1  0  0  0  0
  5  6  1  0  0  0  0
  7 12  1  0  0  0  0
  5 13  1  0  0  0  0
  7 13  1  0  0  0  0
  1 16  1  0  0  0  0
  2 17  1  0  0  0  0
  5 18  1  0  0  0  0
  6 19  1  0  0  0  0
  6 20  1  0  0  0  0
  7 21  1  0  0  0  0
  7 22  1  0  0  0  0
  8 23  1  0  0  0  0
  8 24  1  0  0  0  0
  8 25  1  0  0  0  0
 10 26  1  0  0  0  0
 12 27  1  0  0  0  0
 12 28  1  0  0  0  0
 15 29  1  0  0  0  0
M  END
> <OPENEYE_ISO_SMILES>
Cc1ccc(nc1)NC(=O)[C@@H]2CCCO2

> <OPENEYE_INCHI>
InChI=1S/C11H14N2O2/c1-8-4-5-10(12-7-8)13-11(14)9-3-2-6-15-9/h4-5,7,9H,2-3,6H2,1H3,(H,12,13,14)/t9-/m0/s1

> <OPENEYE_INCHIKEY>
BFRXGCPOQMOBHK-VIFPVBQESA-N

> <FORMULA>
C11H14N2O2

$$$$
