K2P
  -OEChem-02242320033D

 19 19  0     0  0  0  0  0  0999 V2000
   -0.6810    2.6630    0.0000 C   0  0  0  0  0  0  0  0  0  0  0  0
    0.2510    1.6440    0.0000 C   0  0  0  0  0  0  0  0  0  0  0  0
   -0.1660    0.3210    0.0000 C   0  0  0  0  0  0  0  0  0  0  0  0
    2.1260   -0.3020   -0.0000 C   0  0  0  0  0  0  0  0  0  0  0  0
   -1.9910   -1.3770    0.0000 C   0  0  0  0  0  0  0  0  0  0  0  0
   -1.1780   -2.2800    0.0010 O   0  0  0  0  0  0  0  0  0  0  0  0
   -1.5360    0.0250   -0.0000 C   0  0  0  0  0  0  0  0  0  0  0  0
   -2.4680    1.0660   -0.0000 C   0  0  0  0  0  0  0  0  0  0  0  0
   -2.0360    2.3750   -0.0000 C   0  0  0  0  0  0  0  0  0  0  0  0
    2.4010    0.4570   -1.1420 F   0  0  0  0  0  0  0  0  0  0  0  0
    2.9260   -1.4510   -0.0000 F   0  0  0  0  0  0  0  0  0  0  0  0
    2.4010    0.4570    1.1420 F   0  0  0  0  0  0  0  0  0  0  0  0
   -3.3090   -1.6580   -0.0000 O   0  0  0  0  0  0  0  0  0  0  0  0
    0.7480   -0.6810   -0.0000 O   0  0  0  0  0  0  0  0  0  0  0  0
   -0.3510    3.6920    0.0050 H   0  0  0  0  0  0  0  0  0  0  0  0
    1.3050    1.8770    0.0000 H   0  0  0  0  0  0  0  0  0  0  0  0
   -3.5250    0.8460   -0.0010 H   0  0  0  0  0  0  0  0  0  0  0  0
   -2.7570    3.1790    0.0040 H   0  0  0  0  0  0  0  0  0  0  0  0
   -3.5590   -2.5920    0.0000 H   0  0  0  0  0  0  0  0  0  0  0  0
  4 10  1  0  0  0  0
  4 11  1  0  0  0  0
  4 14  1  0  0  0  0
  4 12  1  0  0  0  0
  3 14  1  0  0  0  0
  2  3  2  0  0  0  0
  3  7  1  0  0  0  0
  1  2  1  0  0  0  0
  5  6  2  0  0  0  0
  5  7  1  0  0  0  0
  7  8  2  0  0  0  0
  5 13  1  0  0  0  0
  1  9  2  0  0  0  0
  8  9  1  0  0  0  0
  1 15  1  0  0  0  0
  2 16  1  0  0  0  0
  8 17  1  0  0  0  0
  9 18  1  0  0  0  0
 13 19  1  0  0  0  0
M  END
> <OPENEYE_ISO_SMILES>
c1ccc(c(c1)C(=O)O)OC(F)(F)F

> <OPENEYE_INCHI>
InChI=1S/C8H5F3O3/c9-8(10,11)14-6-4-2-1-3-5(6)7(12)13/h1-4H,(H,12,13)

> <OPENEYE_INCHIKEY>
JMYSPFGUBNENSE-UHFFFAOYSA-N

> <FORMULA>
C8H5F3O3

$$$$
