@<TRIPOS>MOLECULE
/home/pku/3cl/gett_pdb/5S32/5S32_mol2/ligand/5S32_W0V.pdb
 16 17 0 0 0
SMALL
GASTEIGER

@<TRIPOS>ATOM
      1  N1        -7.0980   14.8250   -0.2030 N.ar  401  W0V401     -0.2274
      2  C4        -8.7450   14.3820    1.6260 C.3   401  W0V401      0.1803
      3  C5        -7.3690   14.6540    1.0770 C.ar  401  W0V401      0.1610
      4  C6        -5.7280   15.0790   -0.2480 C.ar  401  W0V401      0.1003
      5  C7        -4.8830   15.3260   -1.3270 C.ar  401  W0V401      0.0207
      6  C8        -3.5400   15.5640   -1.0770 C.ar  401  W0V401      0.0016
      7  C10       -3.8730   15.3220    1.3070 C.ar  401  W0V401      0.0207
      8  O         -9.1260   16.1270    3.7320 O.2   401  W0V401     -0.2733
      9  C3        -8.8540   14.9530    3.9850 C.2   401  W0V401      0.2413
     10  C1        -8.7230   14.4490    5.4210 C.3   401  W0V401      0.0782
     11  C2        -8.2700   15.5750    6.3100 C.3   401  W0V401      0.0096
     12  C        -10.0360   13.8400    5.8970 C.3   401  W0V401      0.0096
     13  N         -8.6660   14.0420    3.0310 N.am  401  W0V401     -0.1972
     14  N2        -6.2770   14.7750    1.8690 N.ar  401  W0V401     -0.2274
     15  C11       -5.2100   15.0660    1.0470 C.ar  401  W0V401      0.1003
     16  C9        -3.0410   15.5680    0.2250 C.ar  401  W0V401      0.0016
@<TRIPOS>BOND
     1     5     6   ar
     2     5     4   ar
     3     6    16   ar
     4     4     1   ar
     5     4    15   ar
     6     1     3   ar
     7    16     7   ar
     8    15     7   ar
     9    15    14   ar
    10     3     2    1
    11     3    14   ar
    12     2    13    1
    13    13     9   am
    14     8     9    2
    15     9    10    1
    16    10    12    1
    17    10    11    1
