T5D
  -OEChem-02242320043D

 28 29  0     0  0  0  0  0  0999 V2000
    3.3040    0.4650    0.2430 C   0  0  0  0  0  0  0  0  0  0  0  0
    2.7010   -0.5870    0.9160 C   0  0  0  0  0  0  0  0  0  0  0  0
    1.3370   -0.7750    0.7610 C   0  0  0  0  0  0  0  0  0  0  0  0
   -1.5330   -0.3040    1.1420 C   0  0  0  0  0  0  0  0  0  0  0  0
   -2.8880    0.4330    1.0060 C   0  0  0  0  0  0  0  0  0  0  0  0
   -1.4840    1.1510   -0.8540 C   0  0  0  0  0  0  0  0  0  0  0  0
    1.2330    1.0760   -0.6790 N   0  0  0  0  0  0  0  0  0  0  0  0
   -1.1230   -1.3230   -1.1230 C   0  0  0  0  0  0  0  0  0  0  0  0
   -0.5360   -2.4850   -0.5340 O   0  0  0  0  0  0  0  0  0  0  0  0
   -0.8570   -0.1090   -0.2310 C   0  0  0  0  0  0  0  0  0  0  0  0
    0.6270    0.0860   -0.0540 C   0  0  0  0  0  0  0  0  0  0  0  0
    2.5280    1.2880   -0.5510 C   0  0  0  0  0  0  0  0  0  0  0  0
   -2.5180    1.6770    0.1620 C   0  0  0  0  0  0  0  0  0  0  0  0
    4.3650    0.6410    0.3410 H   0  0  0  0  0  0  0  0  0  0  0  0
    3.2820   -1.2450    1.5460 H   0  0  0  0  0  0  0  0  0  0  0  0
    0.8350   -1.5850    1.2700 H   0  0  0  0  0  0  0  0  0  0  0  0
   -0.9310    0.1470    1.9310 H   0  0  0  0  0  0  0  0  0  0  0  0
   -1.6920   -1.3630    1.3440 H   0  0  0  0  0  0  0  0  0  0  0  0
   -3.6150   -0.1880    0.4810 H   0  0  0  0  0  0  0  0  0  0  0  0
   -3.2670    0.7290    1.9850 H   0  0  0  0  0  0  0  0  0  0  0  0
   -0.7150    1.9030   -1.0280 H   0  0  0  0  0  0  0  0  0  0  0  0
   -1.9770    0.8970   -1.7930 H   0  0  0  0  0  0  0  0  0  0  0  0
   -0.6850   -1.1540   -2.1070 H   0  0  0  0  0  0  0  0  0  0  0  0
   -2.1980   -1.4700   -1.2250 H   0  0  0  0  0  0  0  0  0  0  0  0
   -0.6660   -3.2940   -1.0470 H   0  0  0  0  0  0  0  0  0  0  0  0
    2.9900    2.1100   -1.0780 H   0  0  0  0  0  0  0  0  0  0  0  0
   -3.3970    2.0630   -0.3540 H   0  0  0  0  0  0  0  0  0  0  0  0
   -2.0750    2.4480    0.7920 H   0  0  0  0  0  0  0  0  0  0  0  0
  8  9  1  0  0  0  0
  8 10  1  0  0  0  0
 10 11  1  0  0  0  0
  7 11  2  0  0  0  0
  7 12  1  0  0  0  0
  1 12  2  0  0  0  0
  1  2  1  0  0  0  0
  2  3  2  0  0  0  0
  3 11  1  0  0  0  0
  4 10  1  0  0  0  0
  4  5  1  0  0  0  0
  5 13  1  0  0  0  0
  6 13  1  0  0  0  0
  6 10  1  0  0  0  0
  1 14  1  0  0  0  0
  2 15  1  0  0  0  0
  3 16  1  0  0  0  0
  4 17  1  0  0  0  0
  4 18  1  0  0  0  0
  5 19  1  0  0  0  0
  5 20  1  0  0  0  0
  6 21  1  0  0  0  0
  6 22  1  0  0  0  0
  8 23  1  0  0  0  0
  8 24  1  0  0  0  0
  9 25  1  0  0  0  0
 12 26  1  0  0  0  0
 13 27  1  0  0  0  0
 13 28  1  0  0  0  0
M  END
> <OPENEYE_ISO_SMILES>
c1ccnc(c1)C2(CCCC2)CO

> <OPENEYE_INCHI>
InChI=1S/C11H15NO/c13-9-11(6-2-3-7-11)10-5-1-4-8-12-10/h1,4-5,8,13H,2-3,6-7,9H2

> <OPENEYE_INCHIKEY>
NQXVUFAYASZGFN-UHFFFAOYSA-N

> <FORMULA>
C11H15NO

$$$$
