@<TRIPOS>MOLECULE
/home/pku/3cl/gett_pdb/7FR3/7FR3_mol2/ligand/7FR3_WWH.pdb
 53 55 0 0 0
SMALL
GASTEIGER

@<TRIPOS>ATOM
      1  C18      -46.5430  -32.9630    0.2320 C.3   201  WWH201      0.0242
      2  C16      -42.6510  -30.2250    0.6710 C.3   201  WWH201     -0.0339
      3  C17      -41.9480  -31.5440    0.3720 C.3   201  WWH201     -0.0635
      4  C14      -44.4770  -29.3010    5.9210 C.2   201  WWH201      0.3381
      5  C12      -46.7810  -29.0670    6.0930 C.2   201  WWH201      0.3772
      6  C10      -48.8740  -28.8110    5.5320 C.3   201  WWH201      0.2538
      7  C20      -45.2130  -34.6070   -1.1890 C.3   201  WWH201     -0.0406
      8  C19      -46.3860  -34.4000   -0.2430 C.3   201  WWH201     -0.0419
      9  C02      -45.3910  -32.4150    1.0790 C.2   201  WWH201      0.2134
     10  C04      -43.9190  -30.3840    1.5100 C.3   201  WWH201      0.0586
     11  C05      -44.4340  -28.9760    1.8240 C.3   201  WWH201      0.0962
     12  C07      -45.6740  -29.0730    3.9800 C.2   201  WWH201      0.3270
     13  C08      -46.8680  -28.9890    4.7360 C.3   201  WWH201      0.2761
     14  C21      -45.2450  -36.0390   -1.6910 C.3   201  WWH201     -0.0502
     15  C22      -44.0430  -36.3180   -2.5810 C.3   201  WWH201     -0.0528
     16  C23      -43.9530  -35.3340   -3.7440 C.3   201  WWH201     -0.0530
     17  C24      -44.0490  -33.8880   -3.2660 C.3   201  WWH201     -0.0528
     18  C25      -45.2730  -33.6720   -2.3820 C.3   201  WWH201     -0.0502
     19  N03      -44.9720  -31.0630    0.7870 N.am  201  WWH201     -0.3089
     20  N06      -45.6960  -28.9940    2.5400 N.pl3 201  WWH201     -0.2333
     21  N09      -48.1660  -28.8220    4.4100 N.3   201  WWH201     -0.2416
     22  N11      -48.0460  -28.9490    6.5760 N.2   201  WWH201     -0.0538
     23  N13      -45.5620  -29.2290    6.6620 N.2   201  WWH201      0.0009
     24  N15      -44.5210  -29.2210    4.6030 N.2   201  WWH201     -0.0049
     25  O01      -44.8650  -33.0500    1.9370 O.2   201  WWH201     -0.2758
     26 H181      -47.3510  -32.9280    0.7600 H     201  WWH201      0.0358
     27 H182      -46.6720  -32.3890   -0.5410 H     201  WWH201      0.0358
     28 H161      -42.0330  -29.6490    1.1490 H     201  WWH201      0.0282
     29 H162      -42.8830  -29.8020   -0.1690 H     201  WWH201      0.0282
     30 H173      -41.1570  -31.3720   -0.1650 H     201  WWH201      0.0230
     31 H172      -42.5490  -32.1260   -0.1160 H     201  WWH201      0.0230
     32 H171      -41.6880  -31.9670    1.2030 H     201  WWH201      0.0230
     33 H141      -43.6550  -29.4060    6.3330 H     201  WWH201      0.1668
     34 H101      -49.7910  -28.7390    5.5610 H     201  WWH201      0.1067
     35 H201      -44.3780  -34.4490   -0.7150 H     201  WWH201      0.0301
     36 H192      -47.1940  -34.6680   -0.7010 H     201  WWH201      0.0272
     37 H191      -46.2630  -34.9700    0.5280 H     201  WWH201      0.0272
     38 H041      -43.7250  -30.8590    2.3350 H     201  WWH201      0.0535
     39 H052      -43.7810  -28.5000    2.3590 H     201  WWH201      0.0743
     40 H051      -44.5700  -28.4910    0.9970 H     201  WWH201      0.0743
     41 H211      -45.2370  -36.6410   -0.9390 H     201  WWH201      0.0268
     42 H212      -46.0590  -36.1710   -2.2100 H     201  WWH201      0.0268
     43 H221      -44.1080  -37.2170   -2.9260 H     201  WWH201      0.0265
     44 H222      -43.2400  -36.2360   -2.0420 H     201  WWH201      0.0265
     45 H231      -43.1100  -35.4610   -4.2040 H     201  WWH201      0.0265
     46 H232      -44.6850  -35.5070   -4.3620 H     201  WWH201      0.0265
     47 H242      -43.2520  -33.6770   -2.7470 H     201  WWH201      0.0265
     48 H241      -44.0960  -33.3000   -4.0320 H     201  WWH201      0.0265
     49 H251      -46.0830  -33.8420   -2.9000 H     201  WWH201      0.0268
     50 H252      -45.2780  -32.7680   -2.0550 H     201  WWH201      0.0268
     51 H031      -45.3740  -30.6470    0.1630 H     201  WWH201      0.1491
     52 H061      -46.4450  -28.9300    2.1170 H     201  WWH201      0.2911
     53 H121      -48.4770  -28.7590    3.6110 H     201  WWH201      0.1278
@<TRIPOS>BOND
     1    46    16    1
     2    45    16    1
     3    48    17    1
     4    16    17    1
     5    16    15    1
     6    17    47    1
     7    17    18    1
     8    43    15    1
     9    49    18    1
    10    15    44    1
    11    15    14    1
    12    18    50    1
    13    18     7    1
    14    42    14    1
    15    14     7    1
    16    14    41    1
    17     7    35    1
    18     7     8    1
    19    36     8    1
    20    27     1    1
    21     8     1    1
    22     8    37    1
    23    29     2    1
    24    30     3    1
    25    31     3    1
    26    51    19    1
    27     1    26    1
    28     1     9    1
    29     3     2    1
    30     3    32    1
    31     2    28    1
    32     2    10    1
    33    19     9   am
    34    19    10    1
    35    40    11    1
    36     9    25    2
    37    10    11    1
    38    10    38    1
    39    11    39    1
    40    11    20    1
    41    52    20    1
    42    20    12    1
    43    53    21    1
    44    12    24    2
    45    12    13    1
    46    21    13    1
    47    21     6    1
    48    24     4    1
    49    13     5    1
    50     6    34    1
    51     6    22    1
    52     4    33    1
    53     4    23    2
    54     5    22    2
    55     5    23    1
