@<TRIPOS>MOLECULE
/home/pku/3cl/gett_pdb/6BID/6BID_mol2/ligand/6BID_DW4.pdb
 84 42 0 0 0
SMALL
GASTEIGER

@<TRIPOS>ATOM
      1  C33       85.1950  -48.5280  140.8210 C.3   201  DW4201      0.3422
      2  C33       85.6810  -47.3790  140.2680 C.3   201  DW4201      0.3549
      3  O42       85.8010  -49.3260  141.4630 O.3   201  DW4201     -0.1825
      4  O42       86.7230  -47.5630  140.7990 O.3   201  DW4201     -0.1687
      5  O34       84.4020  -47.5180  141.3750 O.3   201  DW4201     -0.3237
      6  O34       84.9570  -46.1990  140.4960 O.3   201  DW4201     -0.3124
      7  C35       84.1840  -47.5880  142.7600 C.3   201  DW4201      0.1451
      8  C35       85.6050  -45.1810  141.2150 C.3   201  DW4201      0.1784
      9  C36       85.1380  -46.6110  143.4480 C.3   201  DW4201      0.0000
     10  C36       85.6390  -45.5080  142.7150 C.3   201  DW4201      0.0001
     11  C37       85.7990  -46.9880  144.6050 C.3   201  DW4201      0.0000
     12  C37       86.2370  -44.6060  143.5780 C.3   201  DW4201      0.0001
     13  C38       86.6600  -46.1000  145.2370 C.3   201  DW4201      0.0000
     14  C38       86.2900  -44.8650  144.9410 C.3   201  DW4201      0.0000
     15  C39       86.8520  -44.8380  144.7100 C.3   201  DW4201      0.0000
     16  C39       85.7410  -46.0300  145.4440 C.3   201  DW4201      0.0000
     17  C40       86.1840  -44.4600  143.5530 C.3   201  DW4201      0.0000
     18  C40       85.1380  -46.9370  144.5820 C.3   201  DW4201      0.0000
     19  C41       85.3240  -45.3460  142.9260 C.3   201  DW4201      0.0025
     20  C41       85.0910  -46.6750  143.2190 C.3   201  DW4201      0.0322
     21  N18       83.4470  -46.8610  134.7920 N.3   201  DW4201      0.0000
     22  N18       83.4380  -46.8600  134.7430 N.3   201  DW4201     -0.1297
     23  C19       82.1510  -47.3720  134.3560 C.3   201  DW4201      0.1297
     24  C19       82.1650  -47.4460  134.3290 C.3   201  DW4201      0.0000
     25  C20       82.0750  -48.9040  134.4450 C.3   201  DW4201      0.0000
     26  C20       82.1930  -48.9800  134.4140 C.3   201  DW4201      0.0000
     27  N29       82.5630  -49.3850  135.7290 N.2   201  DW4201     -0.0025
     28  N29       82.6600  -49.4010  135.7270 N.1   201  DW4201     -0.1795
     29  O01       86.5350  -47.8880  137.1330 O.2   201  DW4201     -0.2794
     30  O01       86.6250  -47.7450  137.2550 O.3   201  DW4201      0.0000
     31  C02       86.7750  -48.9690  137.5690 C.3   201  DW4201      0.1297
     32  C02       86.7900  -48.8400  137.6850 C.2   201  DW4201      0.2794
     33  C25       85.9870  -49.5950  138.7260 C.3   201  DW4201      0.0000
     34  C25       85.9550  -49.4180  138.8380 C.1   201  DW4201      0.1795
     35  C26       85.0830  -50.7110  138.2250 C.3   201  DW4201      0.0000
     36  C26       85.1390  -50.5980  138.3280 C.3   201  DW4201      0.0000
     37  C27       83.8960  -50.1960  137.4270 C.1   201  DW4201      0.1795
     38  C27       83.9630  -50.1340  137.4820 C.3   201  DW4201      0.0000
     39  C28       83.8120  -49.7800  136.0480 C.1   201  DW4201      0.1795
     40  C28       83.9020  -49.7830  136.0820 C.3   201  DW4201      0.0000
     41  N30       81.8740  -49.5530  136.8390 N.3   201  DW4201      0.0000
     42  N30       81.9580  -49.4950  136.8370 N.2   201  DW4201     -0.0139
     43  N31       82.6430  -50.0220  137.8280 N.pl3 201  DW4201      0.0163
     44  N31       82.7090  -49.9160  137.8600 N.1   201  DW4201     -0.1795
     45  N32       85.2440  -48.5400  139.3740 N.1   201  DW4201     -0.1795
     46  N32       85.1050  -48.3640  139.3620 N.3   201  DW4201     -0.0682
     47  N13       88.2850  -47.6470  134.0860 N.3   201  DW4201     -0.1297
     48  N13       88.2780  -47.6640  134.1130 N.3   201  DW4201      0.0000
     49  C14       87.6220  -47.1760  132.8740 C.3   201  DW4201      0.0000
     50  C14       87.6210  -47.1900  132.8960 C.3   201  DW4201      0.1297
     51  C15       86.8470  -45.9020  133.2030 C.3   201  DW4201      0.0000
     52  C15       86.8530  -45.9100  133.2110 C.3   201  DW4201      0.0000
     53  C16       85.8450  -46.1110  134.3160 C.3   201  DW4201      0.0000
     54  C16       85.8330  -46.1220  134.3060 C.3   201  DW4201      0.0000
     55  C17       84.5020  -46.6580  133.8140 C.3   201  DW4201      0.0000
     56  C17       84.5310  -46.7590  133.7960 C.2   201  DW4201      0.2794
     57  O21       84.3110  -46.9260  132.6670 O.2   201  DW4201     -0.2794
     58  O21       84.4000  -47.1760  132.6860 O.3   201  DW4201      0.0000
     59  C22       88.6800  -46.9020  131.8170 C.3   201  DW4201      0.0000
     60  C22       88.6930  -46.9360  131.8510 C.3   201  DW4201      0.2175
     61  O23       89.3690  -48.0840  131.4980 O.3   201  DW4201     -0.2175
     62  O23       89.2810  -48.1560  131.4790 O.3   201  DW4201      0.0000
     63  N03       87.8670  -49.7710  137.0510 N.3   201  DW4201     -0.1297
     64  N03       87.8110  -49.7110  137.1310 N.3   201  DW4201     -0.1297
     65  C04       88.6830  -49.2360  135.9920 C.3   201  DW4201      0.0000
     66  C04       88.6400  -49.2050  136.0620 C.3   201  DW4201      0.1297
     67  C12       87.8670  -48.8760  134.7530 C.2   201  DW4201      0.2794
     68  C12       87.8140  -48.8480  134.8270 C.2   201  DW4201      0.2794
     69  O24       86.9750  -49.5530  134.3530 O.2   201  DW4201     -0.2794
     70  O24       86.8770  -49.4880  134.4660 O.2   201  DW4201     -0.2794
     71  C05       89.7400  -50.2540  135.5760 C.3   201  DW4201      0.0000
     72  C05       89.6880  -50.2320  135.6330 C.3   201  DW4201      0.0000
     73  C06       90.7840  -50.5620  136.6650 C.3   201  DW4201      0.0000
     74  C06       90.7630  -50.5410  136.6930 C.3   201  DW4201      0.0000
     75  C11       91.8060  -51.4270  135.9990 C.3   201  DW4201      0.0000
     76  C11       91.7710  -51.4090  136.0060 C.3   201  DW4201      0.0000
     77  C10       92.9520  -51.8050  136.9130 C.3   201  DW4201      0.0000
     78  C10       92.9320  -51.7900  136.9020 C.3   201  DW4201      0.0000
     79  C09       93.6220  -50.5630  137.5400 C.3   201  DW4201      0.0000
     80  C09       93.6240  -50.5460  137.4980 C.3   201  DW4201      0.0000
     81  C08       92.6360  -49.4660  138.0420 C.3   201  DW4201      0.0000
     82  C08       92.6450  -49.4610  138.0350 C.3   201  DW4201      0.0000
     83  C07       91.4260  -49.2740  137.1180 C.3   201  DW4201      0.0000
     84  C07       91.4250  -49.2560  137.1280 C.3   201  DW4201      0.0000
@<TRIPOS>BOND
     1    61    60    1
     2    57    56    2
     3    50    47    1
     4    52    53    1
     5    24    25    1
     6    69    67    2
     7    23    22    1
     8    70    68    2
     9    72    65    1
    10    28    39    3
    11    27    42    2
    12    75    78    1
    13    76    73    1
    14    66    63    1
    15    74    83    1
    16    42    43    1
    17    77    80    1
    18    84    81    1
    19    64    31    1
    20    29    32    2
    21    37    44    3
    22    36    33    1
    23    34    45    3
    24    46     2    1
    25     2     6    1
    26     2     4    1
    27     2     1    1
    28     6     8    1
    29     1     5    1
    30     1     3    1
    31     5     7    1
    32    10    19    1
    33     7    20    1
    34    19    20    1
    35    19    12    1
    36     9    18    1
    37    12    15    1
    38    18    11    1
    39    11    16    1
    40    15    14    1
    41    14    13    1
    42    13    16    1
