@<TRIPOS>MOLECULE
/home/pku/3cl/gett_pdb/5RSY/5RSY_mol2/ligand/5RSY_3R6.pdb
 19 19 0 0 0
SMALL
GASTEIGER

@<TRIPOS>ATOM
      1  C01      -49.1570  -29.0290    6.7690 C.3   201  3R6201     -0.0135
      2  S02      -47.3620  -29.0360    6.5510 S.3   201  3R6201     -0.1286
      3  C03      -47.0630  -29.1190    4.7920 C.ar  201  3R6201      0.0085
      4  C04      -47.9930  -28.9690    3.8460 C.ar  201  3R6201     -0.0448
      5  C05      -47.6030  -29.1110    2.5070 C.ar  201  3R6201     -0.0185
      6  C06      -46.2620  -29.4300    2.2530 C.ar  201  3R6201      0.1265
      7  O07      -45.7610  -29.6030    0.9810 O.3   201  3R6201     -0.5061
      8  C08      -45.3820  -29.5640    3.2690 C.ar  201  3R6201      0.0496
      9  C09      -45.7920  -29.4670    4.4970 C.ar  201  3R6201     -0.0352
     10  C10      -43.9440  -29.9210    2.9730 C.2   201  3R6201      0.1221
     11  O11      -43.1170  -30.1040    3.8530 O.co2 201  3R6201     -0.3035
     12  O12      -43.5960  -29.9460    1.8500 O.co2 201  3R6201     -0.8440
     13  H1       -49.5600  -28.4300    6.1210 H     201  3R6201      0.0344
     14  H2       -49.5020  -29.9260    6.6380 H     201  3R6201      0.0344
     15  H3       -49.3720  -28.7280    7.6660 H     201  3R6201      0.0344
     16  H4       -48.8700  -28.7530    4.0680 H     201  3R6201      0.0630
     17  H5       -48.1710  -28.9670    1.8040 H     201  3R6201      0.0654
     18  H6       -45.2710  -28.9390    0.7770 H     201  3R6201      0.2922
     19  H7       -45.1790  -29.5700    5.1890 H     201  3R6201      0.0636
@<TRIPOS>UNITY_ATOM_ATTR
12 1
charge -1
@<TRIPOS>BOND
     1    18     7    1
     2     7     6    1
     3    17     5    1
     4    12    10   ar
     5     6     5   ar
     6     6     8   ar
     7     5     4   ar
     8    10     8    1
     9    10    11   ar
    10     8     9   ar
    11     4    16    1
    12     4     3   ar
    13     9     3   ar
    14     9    19    1
    15     3     2    1
    16    13     1    1
    17     2     1    1
    18    14     1    1
    19     1    15    1
