U5P
  -OEChem-02242320043D

 34 35  0     1  0  0  0  0  0999 V2000
    2.4620    0.0390    0.4570 N   0  0  0  0  0  0  0  0  0  0  0  0
    2.4530   -0.7680   -0.6190 C   0  0  0  0  0  0  0  0  0  0  0  0
    3.4830   -1.5960   -0.8710 N   0  0  0  0  0  0  0  0  0  0  0  0
    4.5430   -1.6360   -0.0380 C   0  0  0  0  0  0  0  0  0  0  0  0
    4.5630   -0.7950    1.1010 C   0  0  0  0  0  0  0  0  0  0  0  0
    3.5180    0.0290    1.3270 C   0  0  0  0  0  0  0  0  0  0  0  0
    1.5040   -0.7430   -1.3790 O   0  0  0  0  0  0  0  0  0  0  0  0
    5.4740   -2.3880   -0.2630 O   0  0  0  0  0  0  0  0  0  0  0  0
    1.3280    0.9330    0.7030 C   0  0  1  0  0  0  0  0  0  0  0  0
    1.2260    1.9930   -0.4160 C   0  0  2  0  0  0  0  0  0  0  0  0
    1.8230    3.2230   -0.0010 O   0  0  0  0  0  0  0  0  0  0  0  0
   -0.2940    2.1730   -0.6260 C   0  0  1  0  0  0  0  0  0  0  0  0
   -0.9340    1.2010    0.3900 C   0  0  2  0  0  0  0  0  0  0  0  0
   -0.6830    3.5190   -0.3430 O   0  0  0  0  0  0  0  0  0  0  0  0
    0.0840    0.2030    0.6330 O   0  0  0  0  0  0  0  0  0  0  0  0
   -2.1870    0.5510   -0.2010 C   0  0  0  0  0  0  0  0  0  0  0  0
   -2.7820   -0.3090    0.7730 O   0  0  0  0  0  0  0  0  0  0  0  0
   -4.0870   -0.9560    0.0870 P   0  0  0  0  0  0  0  0  0  0  0  0
   -4.9680    0.1230   -0.4130 O   0  0  0  0  0  0  0  0  0  0  0  0
   -3.6390   -1.8950   -1.1410 O   0  0  0  0  0  0  0  0  0  0  0  0
   -4.8830   -1.8380    1.1740 O   0  0  0  0  0  0  0  0  0  0  0  0
    3.4620   -2.1690   -1.6540 H   0  0  0  0  0  0  0  0  0  0  0  0
    5.4030   -0.8130    1.7790 H   0  0  0  0  0  0  0  0  0  0  0  0
    3.5160    0.6780    2.1910 H   0  0  0  0  0  0  0  0  0  0  0  0
    1.4300    1.4170    1.6750 H   0  0  0  0  0  0  0  0  0  0  0  0
    1.6970    1.6300   -1.3300 H   0  0  0  0  0  0  0  0  0  0  0  0
    1.6750    3.8600   -0.7130 H   0  0  0  0  0  0  0  0  0  0  0  0
   -0.5740    1.9020   -1.6430 H   0  0  0  0  0  0  0  0  0  0  0  0
   -1.1800    1.7260    1.3130 H   0  0  0  0  0  0  0  0  0  0  0  0
   -0.2310    4.0820   -0.9870 H   0  0  0  0  0  0  0  0  0  0  0  0
   -2.8990    1.3260   -0.4850 H   0  0  0  0  0  0  0  0  0  0  0  0
   -1.9130   -0.0310   -1.0810 H   0  0  0  0  0  0  0  0  0  0  0  0
   -3.0680   -2.5830   -0.7730 H   0  0  0  0  0  0  0  0  0  0  0  0
   -5.6550   -2.2060    0.7230 H   0  0  0  0  0  0  0  0  0  0  0  0
  1  2  1  0  0  0  0
  1  6  1  0  0  0  0
  1  9  1  0  0  0  0
  2  3  1  0  0  0  0
  2  7  2  0  0  0  0
  3  4  1  0  0  0  0
  3 22  1  0  0  0  0
  4  5  1  0  0  0  0
  4  8  2  0  0  0  0
  5  6  2  0  0  0  0
  5 23  1  0  0  0  0
  6 24  1  0  0  0  0
  9 10  1  0  0  0  0
  9 15  1  0  0  0  0
  9 25  1  0  0  0  0
 10 11  1  0  0  0  0
 10 12  1  0  0  0  0
 10 26  1  0  0  0  0
 11 27  1  0  0  0  0
 12 13  1  0  0  0  0
 12 14  1  0  0  0  0
 12 28  1  0  0  0  0
 13 15  1  0  0  0  0
 13 16  1  0  0  0  0
 13 29  1  0  0  0  0
 14 30  1  0  0  0  0
 16 17  1  0  0  0  0
 16 31  1  0  0  0  0
 16 32  1  0  0  0  0
 17 18  1  0  0  0  0
 18 19  2  0  0  0  0
 18 20  1  0  0  0  0
 18 21  1  0  0  0  0
 20 33  1  0  0  0  0
 21 34  1  0  0  0  0
M  END
> <OPENEYE_ISO_SMILES>
c1cn(c(=O)[nH]c1=O)[C@H]2[C@@H]([C@@H]([C@H](O2)COP(=O)(O)O)O)O

> <OPENEYE_INCHI>
InChI=1S/C9H13N2O9P/c12-5-1-2-11(9(15)10-5)8-7(14)6(13)4(20-8)3-19-21(16,17)18/h1-2,4,6-8,13-14H,3H2,(H,10,12,15)(H2,16,17,18)/t4-,6-,7-,8-/m1/s1

> <OPENEYE_INCHIKEY>
DJJCXFVJDGTHFX-XVFCMESISA-N

> <FORMULA>
C9H13N2O9P

$$$$
