@<TRIPOS>MOLECULE
/home/pku/3cl/gett_pdb/6BIC/6BIC_mol2/ligand/6BIC_5LH.pdb
 40 42 0 0 0
SMALL
GASTEIGER

@<TRIPOS>ATOM
      1  C26       40.0010   67.4230  -10.1310 C.2   201  5LH201      0.4219
      2  O27       40.4170   67.9650  -11.1070 O.2   201  5LH201     -0.2245
      3  O35       39.4430   66.1080  -10.2490 O.3   201  5LH201     -0.4285
      4  C1        40.1600   65.0930   -9.5630 C.3   201  5LH201      0.2368
      5  C2        40.8600   64.1970  -10.6130 C.ar  201  5LH201      0.0213
      6  C3        40.8160   64.5300  -11.9650 C.ar  201  5LH201     -0.0007
      7  C4        41.4590   63.7270  -12.9130 C.ar  201  5LH201     -0.0002
      8  C5        42.1520   62.5980  -12.5010 C.ar  201  5LH201     -0.0000
      9  C6        42.1990   62.2680  -11.1430 C.ar  201  5LH201     -0.0002
     10  C7        41.5540   63.0670  -10.2040 C.ar  201  5LH201     -0.0007
     11  N16       39.1290   68.9230   -2.0400 N.am  201  5LH201     -0.2054
     12  C17       38.4370   70.1210   -2.5050 C.3   201  5LH201      0.1172
     13  C18       37.0710   69.7840   -3.1430 C.3   201  5LH201      0.0498
     14  C19       36.7830   70.8030   -4.2130 C.3   201  5LH201      0.1311
     15  N20       37.4390   70.3900   -5.4480 N.ar  201  5LH201     -0.2305
     16  C21       38.3910   71.0270   -6.1730 C.ar  201  5LH201      0.1132
     17  C22       38.7710   70.2640   -7.3550 C.ar  201  5LH201      0.1031
     18  C23       39.8040   70.5740   -8.4700 C.3   201  5LH201      0.0805
     19  C24       40.7720   69.4310   -8.7690 C.3   201  5LH201      0.1821
     20  N25       40.0830   68.1380   -8.8200 N.am  201  5LH201     -0.1607
     21  C36       41.8880   69.4370   -7.7160 C.2   201  5LH201      0.2621
     22  O37       41.8400   68.7710   -6.7280 O.2   201  5LH201     -0.2715
     23  N38       37.9890   69.2000   -7.2220 N.ar  201  5LH201     -0.1331
     24  N39       37.2240   69.2760   -6.1190 N.ar  201  5LH201     -0.0641
     25  N11       43.0440   70.3160   -7.9770 N.am  201  5LH201     -0.1963
     26  C06       44.1490   70.3840   -7.0300 C.3   201  5LH201      0.1728
     27  C05       43.5990   70.9480   -5.7190 C.2   201  5LH201      0.2612
     28  O12       42.6720   71.6990   -5.7170 O.2   201  5LH201     -0.2715
     29  C07       45.2620   71.2620   -7.5730 C.3   201  5LH201      0.0311
     30  C08       45.9350   70.6320   -8.8320 C.3   201  5LH201      0.0022
     31  C10       46.5790   69.2760   -8.5740 C.3   201  5LH201      0.0001
     32  C09       46.9590   71.5960   -9.4070 C.3   201  5LH201      0.0001
     33  N04       44.2340   70.5080   -4.4720 N.am  201  5LH201     -0.2030
     34  C03       43.7290   71.0070   -3.1850 C.3   201  5LH201      0.1287
     35  C13       42.9270   69.8830   -2.5070 C.3   201  5LH201      0.0340
     36  C14       41.4130   70.1110   -2.5430 C.3   201  5LH201      0.0887
     37  C15       40.5870   68.8920   -2.0360 C.2   201  5LH201      0.2414
     38  O40       41.1220   67.9080   -1.6480 O.2   201  5LH201     -0.2733
     39  C02       44.8820   71.4240   -2.2880 C.3   201  5LH201      0.2036
     40  O01       45.5520   72.4970   -2.8970 O.3   201  5LH201     -0.2185
@<TRIPOS>BOND
     1     7     8   ar
     2     7     6   ar
     3     8     9   ar
     4     6     5   ar
     5     9    10   ar
     6     2     1    2
     7     5    10   ar
     8     5     4    1
     9     3     1    1
    10     3     4    1
    11     1    20   am
    12    32    30    1
    13    30    31    1
    14    30    29    1
    15    20    19    1
    16    19    18    1
    17    19    21    1
    18    18    17    1
    19    25    21   am
    20    25    26    1
    21    21    22    2
    22    29    26    1
    23    17    23   ar
    24    17    16   ar
    25    23    24   ar
    26    26    27    1
    27    16    15   ar
    28    24    15   ar
    29    27    28    2
    30    27    33   am
    31    15    14    1
    32    33    34    1
    33    14    13    1
    34    34    35    1
    35    34    39    1
    36    13    12    1
    37    40    39    1
    38    36    35    1
    39    36    37    1
    40    12    11    1
    41    11    37   am
    42    37    38    2
