@<TRIPOS>MOLECULE
/home/pku/3cl/gett_pdb/5RVO/5RVO_mol2/ligand/5RVO_AQO.pdb
 19 20 0 0 0
SMALL
GASTEIGER

@<TRIPOS>ATOM
      1  C1        12.7530   23.5230    8.0340 C.ar  201  AQO201     -0.0609
      2  C2        11.9700   22.3760    7.8970 C.ar  201  AQO201     -0.0597
      3  C3        10.9990   22.0990    8.8430 C.ar  201  AQO201     -0.0354
      4  C4        10.8060   22.9700    9.9360 C.ar  201  AQO201      0.0797
      5  N5         9.7560   22.6340   10.9300 N.ar  201  AQO201     -0.2160
      6  C6         9.5290   23.5160   12.0680 C.ar  201  AQO201      0.1935
      7  N7         8.4970   23.1790   13.0230 N.pl3 201  AQO201     -0.3289
      8  N8        10.3370   24.6990   12.2330 N.ar  201  AQO201     -0.2948
      9  C9        11.3480   25.0270   11.2750 C.ar  201  AQO201      0.2604
     10  O10       11.9970   26.0100   11.4330 O.2   201  AQO201     -0.2671
     11  C11       11.5790   24.0980   10.0790 C.ar  201  AQO201      0.0648
     12  C12       12.5650   24.3770    9.1100 C.ar  201  AQO201     -0.0474
     13  HC1       13.4100   23.7120    7.4030 H     201  AQO201      0.0618
     14  HC2       12.0970   21.8050    7.1740 H     201  AQO201      0.0618
     15  HC3       10.4700   21.3390    8.7560 H     201  AQO201      0.0639
     16  H71        8.0300   22.4650   12.9170 H     201  AQO201      0.1451
     17  H72        8.3590   23.6860   13.7040 H     201  AQO201      0.1451
     18  H8        10.2000   25.2190   12.9040 H     201  AQO201      0.1716
     19  H12       13.0960   25.1360    9.1960 H     201  AQO201      0.0626
@<TRIPOS>BOND
     1    14     2    1
     2    13     1    1
     3     2     1   ar
     4     2     3   ar
     5     1    12   ar
     6    15     3    1
     7     3     4   ar
     8    12    19    1
     9    12    11   ar
    10     4    11   ar
    11     4     5   ar
    12    11     9   ar
    13     5     6   ar
    14     9    10    2
    15     9     8   ar
    16     6     8   ar
    17     6     7    1
    18     8    18    1
    19    16     7    1
    20     7    17    1
