IOD
  -OEChem-02242320023D

  1  0  0     0  0  0  0  0  0999 V2000
    0.0000    0.0000    0.0000 I   0  5  0  0  0  0  0  0  0  0  0  0
M  CHG  1   1  -1
M  END
> <OPENEYE_ISO_SMILES>
[I-]

> <OPENEYE_INCHI>
InChI=1S/HI/h1H/p-1

> <OPENEYE_INCHIKEY>
XMBWDFGMSWQBCA-UHFFFAOYSA-M

> <FORMULA>
I-

$$$$
