PG6
  -OEChem-02242320033D

 44 43  0     0  0  0  0  0  0999 V2000
    1.5580    0.4420   -7.2650 C   0  0  0  0  0  0  0  0  0  0  0  0
    0.4170    0.3080   -6.4160 O   0  0  0  0  0  0  0  0  0  0  0  0
    0.3770    1.4730   -5.5900 C   0  0  0  0  0  0  0  0  0  0  0  0
   -0.8270    1.3930   -4.6510 C   0  0  0  0  0  0  0  0  0  0  0  0
   -0.7140    0.2300   -3.8290 O   0  0  0  0  0  0  0  0  0  0  0  0
   -1.8630    0.2110   -2.9790 C   0  0  0  0  0  0  0  0  0  0  0  0
   -1.8030   -1.0150   -2.0680 C   0  0  0  0  0  0  0  0  0  0  0  0
   -0.6210   -0.9580   -1.2680 O   0  0  0  0  0  0  0  0  0  0  0  0
   -0.6230   -2.1240   -0.4430 C   0  0  0  0  0  0  0  0  0  0  0  0
    0.6230   -2.1240    0.4430 C   0  0  0  0  0  0  0  0  0  0  0  0
    0.6210   -0.9570    1.2680 O   0  0  0  0  0  0  0  0  0  0  0  0
    1.8040   -1.0150    2.0680 C   0  0  0  0  0  0  0  0  0  0  0  0
    1.8630    0.2120    2.9790 C   0  0  0  0  0  0  0  0  0  0  0  0
    0.7140    0.2300    3.8290 O   0  0  0  0  0  0  0  0  0  0  0  0
    0.8270    1.3930    4.6510 C   0  0  0  0  0  0  0  0  0  0  0  0
   -0.3780    1.4730    5.5900 C   0  0  0  0  0  0  0  0  0  0  0  0
   -0.4170    0.3070    6.4160 O   0  0  0  0  0  0  0  0  0  0  0  0
   -1.5590    0.4410    7.2650 C   0  0  0  0  0  0  0  0  0  0  0  0
    2.4590    0.5140   -6.6540 H   0  0  0  0  0  0  0  0  0  0  0  0
    1.6300   -0.4280   -7.9170 H   0  0  0  0  0  0  0  0  0  0  0  0
    1.4570    1.3420   -7.8710 H   0  0  0  0  0  0  0  0  0  0  0  0
    1.2930    1.5320   -5.0010 H   0  0  0  0  0  0  0  0  0  0  0  0
    0.2910    2.3600   -6.2170 H   0  0  0  0  0  0  0  0  0  0  0  0
   -0.8580    2.2820   -4.0210 H   0  0  0  0  0  0  0  0  0  0  0  0
   -1.7430    1.3330   -5.2400 H   0  0  0  0  0  0  0  0  0  0  0  0
   -1.8800    1.1150   -2.3710 H   0  0  0  0  0  0  0  0  0  0  0  0
   -2.7650    0.1670   -3.5900 H   0  0  0  0  0  0  0  0  0  0  0  0
   -2.6800   -1.0300   -1.4200 H   0  0  0  0  0  0  0  0  0  0  0  0
   -1.7870   -1.9200   -2.6760 H   0  0  0  0  0  0  0  0  0  0  0  0
   -1.5140   -2.1240    0.1830 H   0  0  0  0  0  0  0  0  0  0  0  0
   -0.6210   -3.0140   -1.0720 H   0  0  0  0  0  0  0  0  0  0  0  0
    0.6220   -3.0140    1.0720 H   0  0  0  0  0  0  0  0  0  0  0  0
    1.5150   -2.1240   -0.1830 H   0  0  0  0  0  0  0  0  0  0  0  0
    1.7870   -1.9190    2.6760 H   0  0  0  0  0  0  0  0  0  0  0  0
    2.6800   -1.0290    1.4200 H   0  0  0  0  0  0  0  0  0  0  0  0
    2.7650    0.1680    3.5900 H   0  0  0  0  0  0  0  0  0  0  0  0
    1.8800    1.1160    2.3710 H   0  0  0  0  0  0  0  0  0  0  0  0
    1.7420    1.3340    5.2400 H   0  0  0  0  0  0  0  0  0  0  0  0
    0.8570    2.2820    4.0210 H   0  0  0  0  0  0  0  0  0  0  0  0
   -0.2920    2.3600    6.2170 H   0  0  0  0  0  0  0  0  0  0  0  0
   -1.2930    1.5320    5.0010 H   0  0  0  0  0  0  0  0  0  0  0  0
   -1.6300   -0.4290    7.9170 H   0  0  0  0  0  0  0  0  0  0  0  0
   -1.4570    1.3410    7.8710 H   0  0  0  0  0  0  0  0  0  0  0  0
   -2.4590    0.5130    6.6540 H   0  0  0  0  0  0  0  0  0  0  0  0
  1  2  1  0  0  0  0
  1 19  1  0  0  0  0
  1 20  1  0  0  0  0
  1 21  1  0  0  0  0
  2  3  1  0  0  0  0
  3  4  1  0  0  0  0
  3 22  1  0  0  0  0
  3 23  1  0  0  0  0
  4  5  1  0  0  0  0
  4 24  1  0  0  0  0
  4 25  1  0  0  0  0
  5  6  1  0  0  0  0
  6  7  1  0  0  0  0
  6 26  1  0  0  0  0
  6 27  1  0  0  0  0
  7  8  1  0  0  0  0
  7 28  1  0  0  0  0
  7 29  1  0  0  0  0
  8  9  1  0  0  0  0
  9 10  1  0  0  0  0
  9 30  1  0  0  0  0
  9 31  1  0  0  0  0
 10 11  1  0  0  0  0
 10 32  1  0  0  0  0
 10 33  1  0  0  0  0
 11 12  1  0  0  0  0
 12 13  1  0  0  0  0
 12 34  1  0  0  0  0
 12 35  1  0  0  0  0
 13 14  1  0  0  0  0
 13 36  1  0  0  0  0
 13 37  1  0  0  0  0
 14 15  1  0  0  0  0
 15 16  1  0  0  0  0
 15 38  1  0  0  0  0
 15 39  1  0  0  0  0
 16 17  1  0  0  0  0
 16 40  1  0  0  0  0
 16 41  1  0  0  0  0
 17 18  1  0  0  0  0
 18 42  1  0  0  0  0
 18 43  1  0  0  0  0
 18 44  1  0  0  0  0
M  END
> <OPENEYE_ISO_SMILES>
COCCOCCOCCOCCOCCOC

> <OPENEYE_INCHI>
InChI=1S/C12H26O6/c1-13-3-5-15-7-9-17-11-12-18-10-8-16-6-4-14-2/h3-12H2,1-2H3

> <OPENEYE_INCHIKEY>
DMDPGPKXQDIQQG-UHFFFAOYSA-N

> <FORMULA>
C12H26O6

$$$$
