CF0
  -OEChem-02242320023D

  5  4  0     0  0  0  0  0  0999 V2000
    0.7490    0.0000   -0.0000 C   0  0  0  0  0  0  0  0  0  0  0  0
   -0.6500   -0.0000    0.0000 F   0  0  0  0  0  0  0  0  0  0  0  0
    1.1120   -0.0100    1.0280 H   0  0  0  0  0  0  0  0  0  0  0  0
    1.1120   -0.8850   -0.5220 H   0  0  0  0  0  0  0  0  0  0  0  0
    1.1120    0.8950   -0.5050 H   0  0  0  0  0  0  0  0  0  0  0  0
  1  2  1  0  0  0  0
  1  3  1  0  0  0  0
  1  4  1  0  0  0  0
  1  5  1  0  0  0  0
M  END
> <OPENEYE_ISO_SMILES>
CF

> <OPENEYE_INCHI>
InChI=1S/CH3F/c1-2/h1H3

> <OPENEYE_INCHIKEY>
NBVXSUQYWXRMNV-UHFFFAOYSA-N

> <FORMULA>
CH3F

$$$$
