UPJ
  -OEChem-02242320043D

 39 40  0     0  0  0  0  0  0999 V2000
   -1.6380    0.2710   -0.6500 N   0  0  0  0  0  0  0  0  0  0  0  0
    4.6280    0.1920    0.5020 C   0  0  0  0  0  0  0  0  0  0  0  0
    5.0280    1.5960    0.8760 C   0  0  0  0  0  0  0  0  0  0  0  0
    3.0350   -1.3890   -0.4760 C   0  0  0  0  0  0  0  0  0  0  0  0
    1.5860   -1.5280    0.0010 C   0  0  0  0  0  0  0  0  0  0  0  0
   -1.2890    1.2820   -1.6510 C   0  0  0  0  0  0  0  0  0  0  0  0
   -3.7250   -0.9200   -0.4080 C   0  0  0  0  0  0  0  0  0  0  0  0
   -4.7510    1.1740    1.0850 C   0  0  0  0  0  0  0  0  0  0  0  0
    5.3240   -0.7450    0.8300 O   0  0  0  0  0  0  0  0  0  0  0  0
    3.4960   -0.0220   -0.1980 N   0  0  0  0  0  0  0  0  0  0  0  0
    2.6990    1.1080   -0.6960 C   0  0  0  0  0  0  0  0  0  0  0  0
    1.2540    0.9410   -0.2160 C   0  0  0  0  0  0  0  0  0  0  0  0
    0.7340   -0.4330   -0.6450 C   0  0  0  0  0  0  0  0  0  0  0  0
   -0.6990   -0.5880   -0.2050 C   0  0  0  0  0  0  0  0  0  0  0  0
   -1.0080   -1.4850    0.5520 O   0  0  0  0  0  0  0  0  0  0  0  0
   -2.9440    0.1990   -0.1540 C   0  0  0  0  0  0  0  0  0  0  0  0
   -3.4610    1.2480    0.5960 C   0  0  0  0  0  0  0  0  0  0  0  0
   -5.5240    0.0560    0.8340 C   0  0  0  0  0  0  0  0  0  0  0  0
   -5.0140   -0.9870    0.0840 C   0  0  0  0  0  0  0  0  0  0  0  0
    4.3370    2.3050    0.4200 H   0  0  0  0  0  0  0  0  0  0  0  0
    4.9980    1.7060    1.9600 H   0  0  0  0  0  0  0  0  0  0  0  0
    6.0390    1.7930    0.5190 H   0  0  0  0  0  0  0  0  0  0  0  0
    3.6650   -2.1020    0.0550 H   0  0  0  0  0  0  0  0  0  0  0  0
    3.0880   -1.5830   -1.5480 H   0  0  0  0  0  0  0  0  0  0  0  0
    1.2010   -2.5060   -0.2860 H   0  0  0  0  0  0  0  0  0  0  0  0
    1.5490   -1.4260    1.0850 H   0  0  0  0  0  0  0  0  0  0  0  0
   -0.9520    2.1890   -1.1490 H   0  0  0  0  0  0  0  0  0  0  0  0
   -0.4900    0.9020   -2.2880 H   0  0  0  0  0  0  0  0  0  0  0  0
   -2.1640    1.5080   -2.2600 H   0  0  0  0  0  0  0  0  0  0  0  0
   -3.3270   -1.7350   -0.9940 H   0  0  0  0  0  0  0  0  0  0  0  0
   -5.1520    1.9870    1.6720 H   0  0  0  0  0  0  0  0  0  0  0  0
    3.1070    2.0420   -0.3090 H   0  0  0  0  0  0  0  0  0  0  0  0
    2.7230    1.1200   -1.7860 H   0  0  0  0  0  0  0  0  0  0  0  0
    1.2190    1.0200    0.8700 H   0  0  0  0  0  0  0  0  0  0  0  0
    0.6320    1.7190   -0.6580 H   0  0  0  0  0  0  0  0  0  0  0  0
    0.7910   -0.5210   -1.7300 H   0  0  0  0  0  0  0  0  0  0  0  0
   -2.8560    2.1200    0.7950 H   0  0  0  0  0  0  0  0  0  0  0  0
   -6.5290   -0.0030    1.2250 H   0  0  0  0  0  0  0  0  0  0  0  0
   -5.6230   -1.8560   -0.1170 H   0  0  0  0  0  0  0  0  0  0  0  0
  2  3  1  0  0  0  0
  2  9  2  0  0  0  0
  2 10  1  0  0  0  0
  4 10  1  0  0  0  0
 10 11  1  0  0  0  0
  4  5  1  0  0  0  0
 11 12  1  0  0  0  0
  5 13  1  0  0  0  0
 12 13  1  0  0  0  0
 13 14  1  0  0  0  0
 14 15  2  0  0  0  0
  1 14  1  0  0  0  0
  1 16  1  0  0  0  0
  1  6  1  0  0  0  0
 16 17  2  0  0  0  0
  8 17  1  0  0  0  0
  7 16  1  0  0  0  0
  8 18  2  0  0  0  0
  7 19  2  0  0  0  0
 18 19  1  0  0  0  0
  3 20  1  0  0  0  0
  3 21  1  0  0  0  0
  3 22  1  0  0  0  0
  4 23  1  0  0  0  0
  4 24  1  0  0  0  0
  5 25  1  0  0  0  0
  5 26  1  0  0  0  0
  6 27  1  0  0  0  0
  6 28  1  0  0  0  0
  6 29  1  0  0  0  0
  7 30  1  0  0  0  0
  8 31  1  0  0  0  0
 11 32  1  0  0  0  0
 11 33  1  0  0  0  0
 12 34  1  0  0  0  0
 12 35  1  0  0  0  0
 13 36  1  0  0  0  0
 17 37  1  0  0  0  0
 18 38  1  0  0  0  0
 19 39  1  0  0  0  0
M  END
> <OPENEYE_ISO_SMILES>
CC(=O)N1CCC(CC1)C(=O)N(C)c2ccccc2

> <OPENEYE_INCHI>
InChI=1S/C15H20N2O2/c1-12(18)17-10-8-13(9-11-17)15(19)16(2)14-6-4-3-5-7-14/h3-7,13H,8-11H2,1-2H3

> <OPENEYE_INCHIKEY>
UGFUNCZTAQSFHR-UHFFFAOYSA-N

> <FORMULA>
C15H20N2O2

$$$$
