RFI
  -OEChem-02242320043D

 41 45  0     1  0  0  0  0  0999 V2000
   -4.9340    1.0280   -0.6760 C   0  0  0  0  0  0  0  0  0  0  0  0
   -5.5140   -1.0630    0.0340 C   0  0  0  0  0  0  0  0  0  0  0  0
   -4.0700   -0.7530    0.4710 C   0  0  0  0  0  0  0  0  0  0  0  0
   -2.5910    1.3690    0.1140 C   0  0  1  0  0  0  0  0  0  0  0  0
   -2.1970    1.4540    1.6060 C   0  0  0  0  0  0  0  0  0  0  0  0
   -1.1650    0.3080    1.7580 C   0  0  0  0  0  0  0  0  0  0  0  0
   -1.4220    0.6360   -0.5700 C   0  0  0  0  0  0  0  0  0  0  0  0
    5.0860    1.4880   -0.1660 C   0  0  0  0  0  0  0  0  0  0  0  0
    5.0730    0.1180   -0.3350 C   0  0  0  0  0  0  0  0  0  0  0  0
    3.8740   -0.5820   -0.2520 C   0  0  0  0  0  0  0  0  0  0  0  0
    2.2220   -2.1300   -0.2100 C   0  0  0  0  0  0  0  0  0  0  0  0
    1.6130   -0.8890    0.0320 C   0  0  0  0  0  0  0  0  0  0  0  0
    0.2280   -0.8470    0.2350 C   0  0  0  0  0  0  0  0  0  0  0  0
    0.1550   -3.1350   -0.0420 C   0  0  0  0  0  0  0  0  0  0  0  0
    2.6850    0.1180    0.0050 C   0  0  0  0  0  0  0  0  0  0  0  0
    2.7120    1.5000    0.1740 C   0  0  0  0  0  0  0  0  0  0  0  0
    3.9090    2.1770    0.0940 C   0  0  0  0  0  0  0  0  0  0  0  0
    6.2540    2.1630   -0.2480 F   0  0  0  0  0  0  0  0  0  0  0  0
    3.5700   -1.9270   -0.3770 N   0  0  0  0  0  0  0  0  0  0  0  0
   -0.4160    0.3540    0.4760 N   0  0  2  0  0  0  0  0  0  0  0  0
   -3.8310    0.6050   -0.0420 N   0  0  0  0  0  0  0  0  0  0  0  0
   -0.4550   -1.9880    0.1890 N   0  0  0  0  0  0  0  0  0  0  0  0
    1.4540   -3.2200   -0.2370 N   0  0  0  0  0  0  0  0  0  0  0  0
   -5.9340    0.1400   -0.6730 O   0  0  0  0  0  0  0  0  0  0  0  0
   -5.0180    2.1210   -1.2000 O   0  0  0  0  0  0  0  0  0  0  0  0
   -5.5370   -1.9250   -0.6330 H   0  0  0  0  0  0  0  0  0  0  0  0
   -6.1480   -1.2360    0.9030 H   0  0  0  0  0  0  0  0  0  0  0  0
   -3.9870   -0.7720    1.5580 H   0  0  0  0  0  0  0  0  0  0  0  0
   -3.3730   -1.4610    0.0210 H   0  0  0  0  0  0  0  0  0  0  0  0
   -2.7080    2.3680   -0.3060 H   0  0  0  0  0  0  0  0  0  0  0  0
   -1.7390    2.4170    1.8300 H   0  0  0  0  0  0  0  0  0  0  0  0
   -3.0630    1.2790    2.2440 H   0  0  0  0  0  0  0  0  0  0  0  0
   -0.5000    0.4980    2.6000 H   0  0  0  0  0  0  0  0  0  0  0  0
   -1.6700   -0.6510    1.8740 H   0  0  0  0  0  0  0  0  0  0  0  0
   -1.7750   -0.2980   -1.0070 H   0  0  0  0  0  0  0  0  0  0  0  0
   -0.9880    1.2700   -1.3430 H   0  0  0  0  0  0  0  0  0  0  0  0
    5.9940   -0.4100   -0.5330 H   0  0  0  0  0  0  0  0  0  0  0  0
   -0.4340   -4.0400   -0.0710 H   0  0  0  0  0  0  0  0  0  0  0  0
    1.7980    2.0390    0.3760 H   0  0  0  0  0  0  0  0  0  0  0  0
    3.9310    3.2490    0.2250 H   0  0  0  0  0  0  0  0  0  0  0  0
    4.2170   -2.6270   -0.5570 H   0  0  0  0  0  0  0  0  0  0  0  0
  2  3  1  0  0  0  0
  3 21  1  0  0  0  0
  2 24  1  0  0  0  0
  4  5  1  0  0  0  0
  5  6  1  0  0  0  0
  4 21  1  0  0  0  0
  4  7  1  0  0  0  0
  1 21  1  0  0  0  0
  1 24  1  0  0  0  0
  6 20  1  0  0  0  0
  7 20  1  0  0  0  0
  1 25  2  0  0  0  0
 13 20  1  0  0  0  0
 16 17  2  0  0  0  0
 15 16  1  0  0  0  0
  8 17  1  0  0  0  0
 13 22  2  0  0  0  0
 12 13  1  0  0  0  0
 12 15  1  0  0  0  0
 10 15  2  0  0  0  0
  8 18  1  0  0  0  0
  8  9  2  0  0  0  0
 14 22  1  0  0  0  0
 11 12  2  0  0  0  0
  9 10  1  0  0  0  0
 10 19  1  0  0  0  0
 14 23  2  0  0  0  0
 11 19  1  0  0  0  0
 11 23  1  0  0  0  0
  2 26  1  0  0  0  0
  2 27  1  0  0  0  0
  3 28  1  0  0  0  0
  3 29  1  0  0  0  0
  4 30  1  0  0  0  0
  5 31  1  0  0  0  0
  5 32  1  0  0  0  0
  6 33  1  0  0  0  0
  6 34  1  0  0  0  0
  7 35  1  0  0  0  0
  7 36  1  0  0  0  0
  9 37  1  0  0  0  0
 14 38  1  0  0  0  0
 16 39  1  0  0  0  0
 17 40  1  0  0  0  0
 19 41  1  0  0  0  0
M  END
> <OPENEYE_ISO_SMILES>
c1cc2c(cc1F)[nH]c3c2c(ncn3)[N@@]4CC[C@@H](C4)N5CCOC5=O

> <OPENEYE_INCHI>
InChI=1S/C17H16FN5O2/c18-10-1-2-12-13(7-10)21-15-14(12)16(20-9-19-15)22-4-3-11(8-22)23-5-6-25-17(23)24/h1-2,7,9,11H,3-6,8H2,(H,19,20,21)/t11-/m0/s1

> <OPENEYE_INCHIKEY>
JXLRADUCHRSAKP-NSHDSACASA-N

> <FORMULA>
C17H16FN5O2

$$$$
