RFU
  -OEChem-02242320043D

 41 45  0     1  0  0  0  0  0999 V2000
    4.3440    2.2640   -0.0400 C   0  0  0  0  0  0  0  0  0  0  0  0
    4.7260    0.9750   -0.3530 C   0  0  0  0  0  0  0  0  0  0  0  0
    3.7930   -0.0550   -0.3220 C   0  0  0  0  0  0  0  0  0  0  0  0
    2.6730   -2.0220   -0.4130 C   0  0  0  0  0  0  0  0  0  0  0  0
    1.7380   -1.0480   -0.0300 C   0  0  0  0  0  0  0  0  0  0  0  0
    0.4140   -1.4390    0.2010 C   0  0  0  0  0  0  0  0  0  0  0  0
   -1.1100   -0.8490    1.9020 C   0  0  0  0  0  0  0  0  0  0  0  0
   -2.5880   -0.3920    1.8250 C   0  0  0  0  0  0  0  0  0  0  0  0
   -2.9500   -0.7480    0.3590 C   0  0  2  0  0  0  0  0  0  0  0  0
   -5.3340   -0.3620   -0.6320 C   0  0  0  0  0  0  0  0  0  0  0  0
   -6.0750    0.9370   -1.0040 C   0  0  0  0  0  0  0  0  0  0  0  0
   -4.0040    1.4460   -0.1890 C   0  0  0  0  0  0  0  0  0  0  0  0
   -1.6400   -0.4560   -0.4030 C   0  0  0  0  0  0  0  0  0  0  0  0
    1.0050   -3.6080   -0.3130 C   0  0  0  0  0  0  0  0  0  0  0  0
    2.4640    0.2310    0.0290 C   0  0  0  0  0  0  0  0  0  0  0  0
    2.0910    1.5360    0.3420 C   0  0  0  0  0  0  0  0  0  0  0  0
    3.0300    2.5430    0.3130 C   0  0  0  0  0  0  0  0  0  0  0  0
    5.2560    3.2600   -0.0720 F   0  0  0  0  0  0  0  0  0  0  0  0
    3.8920   -1.4110   -0.5820 N   0  0  0  0  0  0  0  0  0  0  0  0
   -0.5420   -0.5130    0.5790 N   0  0  2  0  0  0  0  0  0  0  0  0
   -4.0350    0.1080   -0.1290 N   0  0  0  0  0  0  0  0  0  0  0  0
    0.0960   -2.7220    0.0480 N   0  0  0  0  0  0  0  0  0  0  0  0
    2.2600   -3.2830   -0.5390 N   0  0  0  0  0  0  0  0  0  0  0  0
   -5.1250    1.9920   -0.6750 O   0  0  0  0  0  0  0  0  0  0  0  0
   -3.0460    2.1040    0.1640 O   0  0  0  0  0  0  0  0  0  0  0  0
    5.7510    0.7670   -0.6220 H   0  0  0  0  0  0  0  0  0  0  0  0
   -0.5860   -0.3060    2.6890 H   0  0  0  0  0  0  0  0  0  0  0  0
   -1.0520   -1.9230    2.0790 H   0  0  0  0  0  0  0  0  0  0  0  0
   -3.2070   -0.9520    2.5270 H   0  0  0  0  0  0  0  0  0  0  0  0
   -2.6750    0.6800    2.0000 H   0  0  0  0  0  0  0  0  0  0  0  0
   -3.2200   -1.8000    0.2730 H   0  0  0  0  0  0  0  0  0  0  0  0
   -5.8740   -0.9010    0.1460 H   0  0  0  0  0  0  0  0  0  0  0  0
   -5.1990   -0.9930   -1.5100 H   0  0  0  0  0  0  0  0  0  0  0  0
   -6.3090    0.9520   -2.0690 H   0  0  0  0  0  0  0  0  0  0  0  0
   -6.9850    1.0410   -0.4130 H   0  0  0  0  0  0  0  0  0  0  0  0
   -1.4860   -1.2090   -1.1760 H   0  0  0  0  0  0  0  0  0  0  0  0
   -1.6850    0.5360   -0.8520 H   0  0  0  0  0  0  0  0  0  0  0  0
    0.7080   -4.6400   -0.4260 H   0  0  0  0  0  0  0  0  0  0  0  0
    1.0700    1.7560    0.6160 H   0  0  0  0  0  0  0  0  0  0  0  0
    2.7420    3.5560    0.5550 H   0  0  0  0  0  0  0  0  0  0  0  0
    4.7070   -1.8660   -0.8470 H   0  0  0  0  0  0  0  0  0  0  0  0
 12 24  1  0  0  0  0
 11 24  1  0  0  0  0
 12 25  2  0  0  0  0
 12 21  1  0  0  0  0
 10 11  1  0  0  0  0
 10 21  1  0  0  0  0
  9 21  1  0  0  0  0
  8  9  1  0  0  0  0
  9 13  1  0  0  0  0
  7  8  1  0  0  0  0
 13 20  1  0  0  0  0
  7 20  1  0  0  0  0
  6 20  1  0  0  0  0
 16 17  2  0  0  0  0
 15 16  1  0  0  0  0
  1 17  1  0  0  0  0
  6 22  2  0  0  0  0
  5  6  1  0  0  0  0
  5 15  1  0  0  0  0
  3 15  2  0  0  0  0
  1 18  1  0  0  0  0
  1  2  2  0  0  0  0
 14 22  1  0  0  0  0
  4  5  2  0  0  0  0
  2  3  1  0  0  0  0
  3 19  1  0  0  0  0
 14 23  2  0  0  0  0
  4 19  1  0  0  0  0
  4 23  1  0  0  0  0
  2 26  1  0  0  0  0
  7 27  1  0  0  0  0
  7 28  1  0  0  0  0
  8 29  1  0  0  0  0
  8 30  1  0  0  0  0
  9 31  1  0  0  0  0
 10 32  1  0  0  0  0
 10 33  1  0  0  0  0
 11 34  1  0  0  0  0
 11 35  1  0  0  0  0
 13 36  1  0  0  0  0
 13 37  1  0  0  0  0
 14 38  1  0  0  0  0
 16 39  1  0  0  0  0
 17 40  1  0  0  0  0
 19 41  1  0  0  0  0
M  END
> <OPENEYE_ISO_SMILES>
c1cc2c(cc1F)[nH]c3c2c(ncn3)[N@@]4CC[C@H](C4)N5CCOC5=O

> <OPENEYE_INCHI>
InChI=1S/C17H16FN5O2/c18-10-1-2-12-13(7-10)21-15-14(12)16(20-9-19-15)22-4-3-11(8-22)23-5-6-25-17(23)24/h1-2,7,9,11H,3-6,8H2,(H,19,20,21)/t11-/m1/s1

> <OPENEYE_INCHIKEY>
JXLRADUCHRSAKP-LLVKDONJSA-N

> <FORMULA>
C17H16FN5O2

$$$$
