@<TRIPOS>MOLECULE
/home/pku/3cl/gett_pdb/7RVO/7RVO_mol2/ligand/7RVO_7VI.pdb
 36 38 0 0 0
SMALL
GASTEIGER

@<TRIPOS>ATOM
      1  N          7.6620    1.0190   28.0710 N.am  401  7VI401     -0.1611
      2  C          4.8500    0.4170   32.7020 C.ar  401  7VI401     -0.0002
      3  O          5.9570   -0.5200   28.4860 O.3   401  7VI401     -0.4285
      4  C1         5.0380   -0.7840   33.3820 C.ar  401  7VI401     -0.0000
      5  C10        9.6960    2.2710   28.3750 C.3   401  7VI401      0.0291
      6  C11        9.7080    1.6750   29.7790 C.3   401  7VI401      0.0023
      7  C12       10.3770    3.6360   28.3130 C.3   401  7VI401      0.0023
      8  C13        7.7850    3.9070   24.4510 C.3   401  7VI401      0.1728
      9  C14        9.1360    4.4960   24.1950 C.2   401  7VI401      0.2612
     10  C15        6.6770    4.8960   24.0860 C.3   401  7VI401      0.0311
     11  C16        5.3390    4.1910   24.2490 C.3   401  7VI401      0.0022
     12  C17       11.1430    4.4240   22.8190 C.3   401  7VI401      0.1287
     13  C18       11.1550    5.1720   21.4870 C.3   401  7VI401      0.2036
     14  C19       12.0790    3.2150   22.7310 C.3   401  7VI401      0.0335
     15  C2         5.1220   -1.9840   32.6790 C.ar  401  7VI401     -0.0002
     16  C20       12.2650    2.5350   24.0790 C.3   401  7VI401      0.0818
     17  C21       13.0440    3.4490   25.0080 C.3   401  7VI401      0.0326
     18  C22       14.1310    2.6070   25.6510 C.3   401  7VI401      0.1156
     19  C23       13.1700    1.3280   23.9660 C.2   401  7VI401      0.2410
     20  C24        5.1450    3.3230   23.0030 C.3   401  7VI401      0.0001
     21  C25        4.3220    4.6000   23.1870 C.3   401  7VI401      0.0001
     22  C3         5.0300   -2.0030   31.2870 C.ar  401  7VI401     -0.0007
     23  C4         4.8370   -0.8040   30.6090 C.ar  401  7VI401      0.0213
     24  C5         4.7410    0.3990   31.3150 C.ar  401  7VI401     -0.0007
     25  C6         4.7130   -0.8310   29.1060 C.3   401  7VI401      0.2368
     26  C7         6.4150    0.8530   28.4550 C.2   401  7VI401      0.4218
     27  C8         8.2820    2.2980   27.8130 C.3   401  7VI401      0.1760
     28  C9         8.3610    2.5020   26.3330 C.2   401  7VI401      0.2617
     29  N1         7.6360    3.5080   25.8330 N.am  401  7VI401     -0.1963
     30  N2         9.7800    4.0250   23.1240 N.am  401  7VI401     -0.2030
     31  N3        14.1860    1.4100   24.8230 N.am  401  7VI401     -0.2054
     32  O1         5.6490    1.7610   28.7720 O.2   401  7VI401     -0.2245
     33  O2         9.0590    1.7680   25.6450 O.2   401  7VI401     -0.2715
     34  O3         9.6080    5.3490   24.9410 O.2   401  7VI401     -0.2715
     35  O4        12.9770    0.4010   23.2010 O.2   401  7VI401     -0.2734
     36  O5        12.4660    5.6320   21.1730 O.3   401  7VI401     -0.2185
@<TRIPOS>BOND
     1    36    13    1
     2    13    12    1
     3    14    12    1
     4    14    16    1
     5    12    30    1
     6    20    21    1
     7    20    11    1
     8    30     9   am
     9    21    11    1
    10    35    19    2
    11    19    16    1
    12    19    31   am
    13    16    17    1
    14    10    11    1
    15    10     8    1
    16     9     8    1
    17     9    34    2
    18     8    29    1
    19    31    18    1
    20    17    18    1
    21    33    28    2
    22    29    28   am
    23    28    27    1
    24    27     1    1
    25    27     5    1
    26     1    26   am
    27     7     5    1
    28     5     6    1
    29    26     3    1
    30    26    32    2
    31     3    25    1
    32    25    23    1
    33    23    22   ar
    34    23    24   ar
    35    22    15   ar
    36    24     2   ar
    37    15     4   ar
    38     2     4   ar
