G83
  -OEChem-02242320023D

 97 99  0     1  0  0  0  0  0999 V2000
    3.9820   -0.8900    1.4330 O   0  0  0  0  0  0  0  0  0  0  0  0
    4.2980   -0.4050    0.3640 C   0  0  0  0  0  0  0  0  0  0  0  0
    5.4220   -0.8140   -0.2540 O   0  0  0  0  0  0  0  0  0  0  0  0
    6.2070   -1.8370    0.4140 C   0  0  0  0  0  0  0  0  0  0  0  0
    7.4190   -2.1650   -0.4210 C   0  0  0  0  0  0  0  0  0  0  0  0
    8.5960   -1.4660   -0.2340 C   0  0  0  0  0  0  0  0  0  0  0  0
    9.7080   -1.7670   -0.9990 C   0  0  0  0  0  0  0  0  0  0  0  0
    9.6410   -2.7670   -1.9510 C   0  0  0  0  0  0  0  0  0  0  0  0
    8.4630   -3.4670   -2.1370 C   0  0  0  0  0  0  0  0  0  0  0  0
    7.3540   -3.1690   -1.3690 C   0  0  0  0  0  0  0  0  0  0  0  0
    3.5210    0.5370   -0.2050 N   0  0  0  0  0  0  0  0  0  0  0  0
    2.2400    0.8990    0.4080 C   0  0  1  0  0  0  0  0  0  0  0  0
    1.9500    2.3780    0.1480 C   0  0  0  0  0  0  0  0  0  0  0  0
    2.9720    3.2240    0.8630 C   0  0  0  0  0  0  0  0  0  0  0  0
    3.7790    2.7040    1.5970 O   0  0  0  0  0  0  0  0  0  0  0  0
    2.9850    4.5540    0.6850 O   0  0  0  0  0  0  0  0  0  0  0  0
    3.9970    5.3060    1.4060 C   0  0  0  0  0  0  0  0  0  0  0  0
    5.3870    4.8210    0.9870 C   0  0  0  0  0  0  0  0  0  0  0  0
    3.8560    6.7940    1.0800 C   0  0  0  0  0  0  0  0  0  0  0  0
    3.8150    5.0940    2.9100 C   0  0  0  0  0  0  0  0  0  0  0  0
    1.1420    0.0580   -0.1900 C   0  0  0  0  0  0  0  0  0  0  0  0
    1.4030   -0.7620   -1.0440 O   0  0  0  0  0  0  0  0  0  0  0  0
   -0.1310    0.2180    0.2250 N   0  0  0  0  0  0  0  0  0  0  0  0
   -1.1990   -0.5990   -0.3570 C   0  0  1  0  0  0  0  0  0  0  0  0
   -1.2800   -1.9350    0.3840 C   0  0  0  0  0  0  0  0  0  0  0  0
   -0.0110   -2.7150    0.1540 C   0  0  0  0  0  0  0  0  0  0  0  0
    1.0580   -2.5650    1.0170 C   0  0  0  0  0  0  0  0  0  0  0  0
    2.2220   -3.2800    0.8060 C   0  0  0  0  0  0  0  0  0  0  0  0
    2.3160   -4.1460   -0.2680 C   0  0  0  0  0  0  0  0  0  0  0  0
    1.2460   -4.2960   -1.1300 C   0  0  0  0  0  0  0  0  0  0  0  0
    0.0810   -3.5840   -0.9170 C   0  0  0  0  0  0  0  0  0  0  0  0
   -2.5130    0.1280   -0.2290 C   0  0  0  0  0  0  0  0  0  0  0  0
   -2.5530    1.2200    0.2960 O   0  0  0  0  0  0  0  0  0  0  0  0
   -3.6430   -0.4370   -0.6980 N   0  0  0  0  0  0  0  0  0  0  0  0
   -4.9020    0.3130   -0.6740 C   0  0  1  0  0  0  0  0  0  0  0  0
   -5.0280    1.1390   -1.9550 C   0  0  0  0  0  0  0  0  0  0  0  0
   -6.2620    2.0390   -1.8620 C   0  0  2  0  0  0  0  0  0  0  0  0
   -6.5060    2.7640   -3.2070 C   0  0  0  0  0  0  0  0  0  0  0  0
   -7.0120    4.1440   -2.7330 C   0  0  0  0  0  0  0  0  0  0  0  0
   -6.4510    4.3270   -1.3890 N   0  0  0  0  0  0  0  0  0  0  0  0
   -6.0270    3.1600   -0.8740 C   0  0  0  0  0  0  0  0  0  0  0  0
   -5.5290    3.0250    0.2240 O   0  0  0  0  0  0  0  0  0  0  0  0
   -6.0760   -0.6630   -0.5780 C   0  0  0  0  0  0  0  0  0  0  0  0
   -6.0180   -1.4000    0.7620 C   0  0  0  0  0  0  0  0  0  0  0  0
   -7.1740   -2.3620    0.8560 C   0  0  0  0  0  0  0  0  0  0  0  0
   -7.9640   -2.4490   -0.0540 O   0  0  0  0  0  0  0  0  0  0  0  0
   -7.3270   -3.1220    1.9520 O   0  0  0  0  0  0  0  0  0  0  0  0
   -8.4630   -4.0260    1.9740 C   0  0  0  0  0  0  0  0  0  0  0  0
   -8.4720   -4.8030    3.2920 C   0  0  0  0  0  0  0  0  0  0  0  0
    3.8090    0.9760   -1.0210 H   0  0  0  0  0  0  0  0  0  0  0  0
    6.5270   -1.4700    1.3890 H   0  0  0  0  0  0  0  0  0  0  0  0
    5.6010   -2.7340    0.5430 H   0  0  0  0  0  0  0  0  0  0  0  0
    8.6480   -0.6840    0.5090 H   0  0  0  0  0  0  0  0  0  0  0  0
    6.4350   -3.7180   -1.5110 H   0  0  0  0  0  0  0  0  0  0  0  0
   10.6270   -1.2200   -0.8540 H   0  0  0  0  0  0  0  0  0  0  0  0
   10.5090   -3.0020   -2.5490 H   0  0  0  0  0  0  0  0  0  0  0  0
    8.4110   -4.2480   -2.8810 H   0  0  0  0  0  0  0  0  0  0  0  0
    2.2890    0.7210    1.4830 H   0  0  0  0  0  0  0  0  0  0  0  0
    2.0000    2.5760   -0.9230 H   0  0  0  0  0  0  0  0  0  0  0  0
    0.9540    2.6230    0.5160 H   0  0  0  0  0  0  0  0  0  0  0  0
    5.5160    4.9720   -0.0840 H   0  0  0  0  0  0  0  0  0  0  0  0
    6.1470    5.3850    1.5280 H   0  0  0  0  0  0  0  0  0  0  0  0
    5.4870    3.7610    1.2200 H   0  0  0  0  0  0  0  0  0  0  0  0
    2.8660    7.1390    1.3780 H   0  0  0  0  0  0  0  0  0  0  0  0
    4.6160    7.3580    1.6210 H   0  0  0  0  0  0  0  0  0  0  0  0
    3.9860    6.9450    0.0080 H   0  0  0  0  0  0  0  0  0  0  0  0
    3.9150    4.0340    3.1430 H   0  0  0  0  0  0  0  0  0  0  0  0
    4.5750    5.6580    3.4510 H   0  0  0  0  0  0  0  0  0  0  0  0
    2.8250    5.4390    3.2090 H   0  0  0  0  0  0  0  0  0  0  0  0
   -0.3390    0.8740    0.9080 H   0  0  0  0  0  0  0  0  0  0  0  0
   -0.9850   -0.7800   -1.4100 H   0  0  0  0  0  0  0  0  0  0  0  0
   -1.4050   -1.7510    1.4510 H   0  0  0  0  0  0  0  0  0  0  0  0
   -2.1300   -2.5060    0.0110 H   0  0  0  0  0  0  0  0  0  0  0  0
    0.9850   -1.8890    1.8560 H   0  0  0  0  0  0  0  0  0  0  0  0
   -0.7560   -3.7040   -1.5880 H   0  0  0  0  0  0  0  0  0  0  0  0
    3.0580   -3.1630    1.4800 H   0  0  0  0  0  0  0  0  0  0  0  0
    3.2260   -4.7040   -0.4330 H   0  0  0  0  0  0  0  0  0  0  0  0
    1.3200   -4.9720   -1.9690 H   0  0  0  0  0  0  0  0  0  0  0  0
   -3.6240   -1.3400   -1.0520 H   0  0  0  0  0  0  0  0  0  0  0  0
   -4.9110    0.9790    0.1900 H   0  0  0  0  0  0  0  0  0  0  0  0
   -4.1380    1.7550   -2.0800 H   0  0  0  0  0  0  0  0  0  0  0  0
   -5.1300    0.4700   -2.8100 H   0  0  0  0  0  0  0  0  0  0  0  0
   -7.0130   -0.1120   -0.6490 H   0  0  0  0  0  0  0  0  0  0  0  0
   -6.0160   -1.3840   -1.3930 H   0  0  0  0  0  0  0  0  0  0  0  0
   -7.1380    1.4560   -1.5790 H   0  0  0  0  0  0  0  0  0  0  0  0
   -5.5780    2.8610   -3.7710 H   0  0  0  0  0  0  0  0  0  0  0  0
   -7.2670    2.2500   -3.7940 H   0  0  0  0  0  0  0  0  0  0  0  0
   -6.6530    4.9270   -3.4010 H   0  0  0  0  0  0  0  0  0  0  0  0
   -8.1010    4.1530   -2.6910 H   0  0  0  0  0  0  0  0  0  0  0  0
   -6.3930    5.1800   -0.9310 H   0  0  0  0  0  0  0  0  0  0  0  0
   -5.0800   -1.9520    0.8330 H   0  0  0  0  0  0  0  0  0  0  0  0
   -6.0780   -0.6790    1.5770 H   0  0  0  0  0  0  0  0  0  0  0  0
   -9.3860   -3.4520    1.8840 H   0  0  0  0  0  0  0  0  0  0  0  0
   -8.3880   -4.7250    1.1400 H   0  0  0  0  0  0  0  0  0  0  0  0
   -9.3250   -5.4810    3.3080 H   0  0  0  0  0  0  0  0  0  0  0  0
   -7.5490   -5.3770    3.3810 H   0  0  0  0  0  0  0  0  0  0  0  0
   -8.5470   -4.1040    4.1250 H   0  0  0  0  0  0  0  0  0  0  0  0
  1  2  2  0  0  0  0
  2  3  1  0  0  0  0
  2 11  1  0  0  0  0
  3  4  1  0  0  0  0
  4  5  1  0  0  0  0
  5  6  1  0  0  0  0
  5 10  2  0  0  0  0
  6  7  2  0  0  0  0
  7  8  1  0  0  0  0
  8  9  2  0  0  0  0
  9 10  1  0  0  0  0
 11 12  1  0  0  0  0
 12 13  1  0  0  0  0
 12 21  1  0  0  0  0
 13 14  1  0  0  0  0
 14 15  2  0  0  0  0
 14 16  1  0  0  0  0
 16 17  1  0  0  0  0
 17 18  1  0  0  0  0
 17 19  1  0  0  0  0
 17 20  1  0  0  0  0
 21 22  2  0  0  0  0
 21 23  1  0  0  0  0
 23 24  1  0  0  0  0
 24 25  1  0  0  0  0
 24 32  1  0  0  0  0
 25 26  1  0  0  0  0
 26 27  1  0  0  0  0
 26 31  2  0  0  0  0
 27 28  2  0  0  0  0
 28 29  1  0  0  0  0
 29 30  2  0  0  0  0
 30 31  1  0  0  0  0
 32 33  2  0  0  0  0
 32 34  1  0  0  0  0
 34 35  1  0  0  0  0
 35 36  1  0  0  0  0
 35 43  1  0  0  0  0
 36 37  1  0  0  0  0
 37 38  1  0  0  0  0
 37 41  1  0  0  0  0
 38 39  1  0  0  0  0
 39 40  1  0  0  0  0
 40 41  1  0  0  0  0
 41 42  2  0  0  0  0
 43 44  1  0  0  0  0
 44 45  1  0  0  0  0
 45 46  2  0  0  0  0
 45 47  1  0  0  0  0
 47 48  1  0  0  0  0
 48 49  1  0  0  0  0
 11 50  1  0  0  0  0
  4 51  1  0  0  0  0
  4 52  1  0  0  0  0
  6 53  1  0  0  0  0
 10 54  1  0  0  0  0
  7 55  1  0  0  0  0
  8 56  1  0  0  0  0
  9 57  1  0  0  0  0
 12 58  1  0  0  0  0
 13 59  1  0  0  0  0
 13 60  1  0  0  0  0
 18 61  1  0  0  0  0
 18 62  1  0  0  0  0
 18 63  1  0  0  0  0
 19 64  1  0  0  0  0
 19 65  1  0  0  0  0
 19 66  1  0  0  0  0
 20 67  1  0  0  0  0
 20 68  1  0  0  0  0
 20 69  1  0  0  0  0
 23 70  1  0  0  0  0
 24 71  1  0  0  0  0
 25 72  1  0  0  0  0
 25 73  1  0  0  0  0
 27 74  1  0  0  0  0
 31 75  1  0  0  0  0
 28 76  1  0  0  0  0
 29 77  1  0  0  0  0
 30 78  1  0  0  0  0
 34 79  1  0  0  0  0
 35 80  1  0  0  0  0
 36 81  1  0  0  0  0
 36 82  1  0  0  0  0
 43 83  1  0  0  0  0
 43 84  1  0  0  0  0
 37 85  1  0  0  0  0
 38 86  1  0  0  0  0
 38 87  1  0  0  0  0
 39 88  1  0  0  0  0
 39 89  1  0  0  0  0
 40 90  1  0  0  0  0
 44 91  1  0  0  0  0
 44 92  1  0  0  0  0
 48 93  1  0  0  0  0
 48 94  1  0  0  0  0
 49 95  1  0  0  0  0
 49 96  1  0  0  0  0
 49 97  1  0  0  0  0
M  END
> <OPENEYE_ISO_SMILES>
CCOC(=O)CC[C@H](C[C@@H]1CCNC1=O)NC(=O)[C@H](Cc2ccccc2)NC(=O)[C@H](CC(=O)OC(C)(C)C)NC(=O)OCc3ccccc3

> <OPENEYE_INCHI>
InChI=1S/C36H48N4O9/c1-5-47-30(41)17-16-27(21-26-18-19-37-32(26)43)38-33(44)28(20-24-12-8-6-9-13-24)39-34(45)29(22-31(42)49-36(2,3)4)40-35(46)48-23-25-14-10-7-11-15-25/h6-15,26-29H,5,16-23H2,1-4H3,(H,37,43)(H,38,44)(H,39,45)(H,40,46)/t26-,27+,28-,29-/m0/s1

> <OPENEYE_INCHIKEY>
DAQSBCFYXOITIO-CRNKYVSFSA-N

> <FORMULA>
C36H48N4O9

$$$$
