2FX
  -OEChem-02242320003D

 21 22  0     0  0  0  0  0  0999 V2000
   -4.4720   -0.3480    0.1960 O   0  0  0  0  0  0  0  0  0  0  0  0
   -3.1350   -0.2600    0.2640 C   0  0  0  0  0  0  0  0  0  0  0  0
   -2.5750   -0.3800    1.3280 O   0  0  0  0  0  0  0  0  0  0  0  0
   -0.8660    0.0430   -0.6390 C   0  0  0  0  0  0  0  0  0  0  0  0
   -0.0640   -1.0040   -0.6300 C   0  0  0  0  0  0  0  0  0  0  0  0
    1.3130   -0.7170   -0.2640 C   0  0  0  0  0  0  0  0  0  0  0  0
    2.4120   -1.5960   -0.1580 C   0  0  0  0  0  0  0  0  0  0  0  0
    3.6380   -1.1270    0.2030 C   0  0  0  0  0  0  0  0  0  0  0  0
    3.8270    0.2210    0.4740 C   0  0  0  0  0  0  0  0  0  0  0  0
    2.7740    1.1000    0.3790 C   0  0  0  0  0  0  0  0  0  0  0  0
    1.5070    0.6400    0.0090 C   0  0  0  0  0  0  0  0  0  0  0  0
   -0.0080    1.5090   -0.2020 S   0  0  0  0  0  0  0  0  0  0  0  0
   -2.3310   -0.0120   -0.9860 C   0  0  0  0  0  0  0  0  0  0  0  0
   -4.9450   -0.5080    1.0240 H   0  0  0  0  0  0  0  0  0  0  0  0
   -0.4060   -1.9980   -0.8760 H   0  0  0  0  0  0  0  0  0  0  0  0
    2.2800   -2.6480   -0.3660 H   0  0  0  0  0  0  0  0  0  0  0  0
    4.4710   -1.8110    0.2800 H   0  0  0  0  0  0  0  0  0  0  0  0
    4.8050    0.5800    0.7610 H   0  0  0  0  0  0  0  0  0  0  0  0
    2.9270    2.1480    0.5910 H   0  0  0  0  0  0  0  0  0  0  0  0
   -2.5060   -0.8200   -1.6970 H   0  0  0  0  0  0  0  0  0  0  0  0
   -2.6350    0.9360   -1.4310 H   0  0  0  0  0  0  0  0  0  0  0  0
  1  2  1  0  0  0  0
  1 14  1  0  0  0  0
  2 13  1  0  0  0  0
  2  3  2  0  0  0  0
  4 12  1  0  0  0  0
  4  5  2  0  0  0  0
  4 13  1  0  0  0  0
  5  6  1  0  0  0  0
  5 15  1  0  0  0  0
  6  7  2  0  0  0  0
  6 11  1  0  0  0  0
  7  8  1  0  0  0  0
  7 16  1  0  0  0  0
  8  9  2  0  0  0  0
  8 17  1  0  0  0  0
  9 10  1  0  0  0  0
  9 18  1  0  0  0  0
 10 11  2  0  0  0  0
 10 19  1  0  0  0  0
 11 12  1  0  0  0  0
 13 20  1  0  0  0  0
 13 21  1  0  0  0  0
M  END
> <OPENEYE_ISO_SMILES>
c1ccc2c(c1)cc(s2)CC(=O)O

> <OPENEYE_INCHI>
InChI=1S/C10H8O2S/c11-10(12)6-8-5-7-3-1-2-4-9(7)13-8/h1-5H,6H2,(H,11,12)

> <OPENEYE_INCHIKEY>
SAAWNQLNUJBOLW-UHFFFAOYSA-N

> <FORMULA>
C10H8O2S

$$$$
