@<TRIPOS>MOLECULE
/home/pku/3cl/gett_pdb/8CZT/8CZT_mol2/ligand/8CZT_P8L.pdb
 32 34 0 0 0
SMALL
GASTEIGER

@<TRIPOS>ATOM
      1  N1       -21.7700   24.6010    1.5900 N.am  401  P8L401     -0.1611
      2  C2       -21.1100   25.8630    1.8800 C.3   401  P8L401      0.1761
      3  C3       -21.3180   26.8580    0.7220 C.3   401  P8L401      0.0312
      4  C4       -20.6920   26.3160   -0.6030 C.3   401  P8L401      0.0022
      5  C6       -19.1450   26.3230   -0.5260 C.3   401  P8L401      0.0001
      6  C8       -21.1970   27.5640    5.4310 C.3   401  P8L401      0.1287
      7  C9       -20.5790   26.7740    6.6000 C.3   401  P8L401      0.0335
      8  C10      -21.0440   25.2620    6.5540 C.3   401  P8L401      0.0818
      9  C11      -20.4030   24.4750    7.6560 C.2   401  P8L401      0.2410
     10  C16      -22.3550   19.9960    3.1400 C.3   401  P8L401      0.0439
     11  C17      -23.2410   19.3260    2.0360 C.3   401  P8L401      0.0037
     12  C19      -22.6730   18.5250    0.8550 C.3   401  P8L401      0.0001
     13  C20      -23.5840   18.7470   -0.3610 C.3   401  P8L401      0.0000
     14  C21      -23.4270   17.6770   -1.4640 C.3   401  P8L401      0.0000
     15  C22      -23.6350   16.2730   -0.8950 C.3   401  P8L401      0.0000
     16  C1       -21.6250   23.4880    2.5460 C.2   401  P8L401      0.4215
     17  C12      -22.8050   23.9360    7.6210 C.3   401  P8L401      0.1156
     18  C13      -22.5330   25.1570    6.6860 C.3   401  P8L401      0.0326
     19  C14      -20.8150   29.0430    5.5230 C.3   401  P8L401      0.2036
     20  C15      -22.6300   21.4970    3.4280 C.3   401  P8L401      0.2100
     21  C18      -23.4660   19.0730    3.5540 C.3   401  P8L401      0.0038
     22  C23      -22.5560   16.0170    0.1620 C.3   401  P8L401      0.0000
     23  C24      -22.6020   17.0540    1.3070 C.3   401  P8L401      0.0000
     24  C5       -21.1030   27.2270   -1.7900 C.3   401  P8L401      0.0001
     25  C7       -21.6690   26.4240    3.1950 C.2   401  P8L401      0.2614
     26  N2       -20.7260   27.0220    4.1630 N.am  401  P8L401     -0.2030
     27  N3       -21.4540   23.6450    8.3080 N.am  401  P8L401     -0.2054
     28  O1       -20.9650   23.6190    3.5260 O.2   401  P8L401     -0.2246
     29  O2       -19.2530   24.4820    7.9550 O.2   401  P8L401     -0.2734
     30  O3       -21.5990   29.7310    4.5730 O.3   401  P8L401     -0.2185
     31  O4       -22.8340   26.3650    3.4350 O.2   401  P8L401     -0.2715
     32  O5       -22.2630   22.2510    2.2800 O.3   401  P8L401     -0.4335
@<TRIPOS>BOND
     1    24     4    1
     2    14    15    1
     3    14    13    1
     4    15    22    1
     5     4     5    1
     6     4     3    1
     7    13    12    1
     8    22    23    1
     9     3     2    1
    10    12    23    1
    11    12    11    1
    12     1     2    1
    13     1    16   am
    14     2    25    1
    15    11    10    1
    16    11    21    1
    17    32    16    1
    18    32    20    1
    19    16    28    2
    20    10    20    1
    21    10    21    1
    22    25    31    2
    23    25    26   am
    24    26     6    1
    25    30    19    1
    26     6    19    1
    27     6     7    1
    28     8     7    1
    29     8    18    1
    30     8     9    1
    31    18    17    1
    32    17    27    1
    33     9    29    2
    34     9    27   am
