RVS
  -OEChem-02242320043D

 52 55  0     1  0  0  0  0  0999 V2000
    2.9930   -0.7090    0.1370 C   0  0  0  0  0  0  0  0  0  0  0  0
    1.4070    0.1800   -1.4270 C   0  0  0  0  0  0  0  0  0  0  0  0
    2.7130   -0.0380   -1.0490 C   0  0  0  0  0  0  0  0  0  0  0  0
    0.3630   -0.2720   -0.6160 C   0  0  0  0  0  0  0  0  0  0  0  0
   -1.0380   -0.0400   -1.0180 C   0  0  0  0  0  0  0  0  0  0  0  0
   -3.4360   -0.2460   -0.6340 C   0  0  1  0  0  0  0  0  0  0  0  0
   -4.9790    2.6540    1.2650 C   0  0  0  0  0  0  0  0  0  0  0  0
   -4.5380    3.7240    0.5140 C   0  0  0  0  0  0  0  0  0  0  0  0
    0.6470   -0.9410    0.5780 C   0  0  0  0  0  0  0  0  0  0  0  0
    1.9550   -1.1610    0.9460 C   0  0  0  0  0  0  0  0  0  0  0  0
   -3.7590   -2.6760   -0.2540 C   0  0  0  0  0  0  0  0  0  0  0  0
   -4.3270   -1.3060    0.0110 C   0  0  1  0  0  0  0  0  0  0  0  0
   -4.3690   -1.0480    1.5220 C   0  0  0  0  0  0  0  0  0  0  0  0
   -5.1610    0.2340    1.7710 C   0  0  0  0  0  0  0  0  0  0  0  0
   -4.6400    1.3550    0.9100 C   0  0  0  0  0  0  0  0  0  0  0  0
   -3.8550    1.1340   -0.1990 C   0  0  0  0  0  0  0  0  0  0  0  0
   -3.4150    2.2120   -0.9560 C   0  0  0  0  0  0  0  0  0  0  0  0
   -3.7540    3.5020   -0.6030 C   0  0  0  0  0  0  0  0  0  0  0  0
    5.2670   -0.0280    0.2090 C   0  0  0  0  0  0  0  0  0  0  0  0
    7.5940    0.6920    0.1460 C   0  0  0  0  0  0  0  0  0  0  0  0
    9.0140    0.1740   -0.0910 C   0  0  0  0  0  0  0  0  0  0  0  0
    8.6850    0.9490    1.1870 C   0  0  0  0  0  0  0  0  0  0  0  0
   -2.0450   -0.4770   -0.2350 N   0  0  0  0  0  0  0  0  0  0  0  0
    4.3170   -0.9340    0.5130 N   0  0  0  0  0  0  0  0  0  0  0  0
    6.5610   -0.2930    0.4770 N   0  0  0  0  0  0  0  0  0  0  0  0
   -4.3840   -3.7650    0.2220 O   0  0  0  0  0  0  0  0  0  0  0  0
    4.9570    1.0280   -0.3070 O   0  0  0  0  0  0  0  0  0  0  0  0
   -1.2850    0.5460   -2.0540 O   0  0  0  0  0  0  0  0  0  0  0  0
   -2.7430   -2.7950   -0.8960 O   0  0  0  0  0  0  0  0  0  0  0  0
    1.1910    0.6970   -2.3500 H   0  0  0  0  0  0  0  0  0  0  0  0
    3.5210    0.3110   -1.6750 H   0  0  0  0  0  0  0  0  0  0  0  0
   -3.5160   -0.3200   -1.7180 H   0  0  0  0  0  0  0  0  0  0  0  0
   -5.5930    2.8290    2.1360 H   0  0  0  0  0  0  0  0  0  0  0  0
   -4.8050    4.7310    0.7970 H   0  0  0  0  0  0  0  0  0  0  0  0
   -0.1580   -1.2920    1.2060 H   0  0  0  0  0  0  0  0  0  0  0  0
    2.1760   -1.6850    1.8640 H   0  0  0  0  0  0  0  0  0  0  0  0
   -5.3340   -1.2390   -0.4010 H   0  0  0  0  0  0  0  0  0  0  0  0
   -4.8560   -1.8840    2.0240 H   0  0  0  0  0  0  0  0  0  0  0  0
   -3.3540   -0.9320    1.9030 H   0  0  0  0  0  0  0  0  0  0  0  0
   -6.2110    0.0590    1.5350 H   0  0  0  0  0  0  0  0  0  0  0  0
   -5.0710    0.5140    2.8200 H   0  0  0  0  0  0  0  0  0  0  0  0
   -2.8030    2.0390   -1.8290 H   0  0  0  0  0  0  0  0  0  0  0  0
   -3.4070    4.3350   -1.1960 H   0  0  0  0  0  0  0  0  0  0  0  0
    7.2610    1.5390   -0.4540 H   0  0  0  0  0  0  0  0  0  0  0  0
    9.1800   -0.9000    0.0000 H   0  0  0  0  0  0  0  0  0  0  0  0
    9.6150    0.6800   -0.8460 H   0  0  0  0  0  0  0  0  0  0  0  0
    9.0700    1.9650    1.2720 H   0  0  0  0  0  0  0  0  0  0  0  0
    8.6350    0.3850    2.1180 H   0  0  0  0  0  0  0  0  0  0  0  0
   -1.8490   -0.9440    0.5920 H   0  0  0  0  0  0  0  0  0  0  0  0
    4.5540   -1.7420    0.9940 H   0  0  0  0  0  0  0  0  0  0  0  0
    6.8090   -1.1350    0.8880 H   0  0  0  0  0  0  0  0  0  0  0  0
   -3.9820   -4.6220    0.0260 H   0  0  0  0  0  0  0  0  0  0  0  0
  7  8  2  0  0  0  0
  7 15  1  0  0  0  0
  8 18  1  0  0  0  0
 14 15  1  0  0  0  0
 13 14  1  0  0  0  0
 15 16  2  0  0  0  0
 17 18  2  0  0  0  0
 12 13  1  0  0  0  0
 16 17  1  0  0  0  0
  6 16  1  0  0  0  0
  6 12  1  0  0  0  0
  6 23  1  0  0  0  0
  5 28  2  0  0  0  0
 11 12  1  0  0  0  0
  5 23  1  0  0  0  0
  4  5  1  0  0  0  0
 11 29  2  0  0  0  0
 11 26  1  0  0  0  0
  2  4  2  0  0  0  0
  2  3  1  0  0  0  0
  4  9  1  0  0  0  0
  1  3  2  0  0  0  0
  9 10  2  0  0  0  0
  1 10  1  0  0  0  0
  1 24  1  0  0  0  0
 19 27  2  0  0  0  0
 19 24  1  0  0  0  0
 19 25  1  0  0  0  0
 20 22  1  0  0  0  0
 21 22  1  0  0  0  0
 20 25  1  0  0  0  0
 20 21  1  0  0  0  0
  2 30  1  0  0  0  0
  3 31  1  0  0  0  0
  6 32  1  0  0  0  0
  7 33  1  0  0  0  0
  8 34  1  0  0  0  0
  9 35  1  0  0  0  0
 10 36  1  0  0  0  0
 12 37  1  0  0  0  0
 13 38  1  0  0  0  0
 13 39  1  0  0  0  0
 14 40  1  0  0  0  0
 14 41  1  0  0  0  0
 17 42  1  0  0  0  0
 18 43  1  0  0  0  0
 20 44  1  0  0  0  0
 21 45  1  0  0  0  0
 21 46  1  0  0  0  0
 22 47  1  0  0  0  0
 22 48  1  0  0  0  0
 23 49  1  0  0  0  0
 24 50  1  0  0  0  0
 25 51  1  0  0  0  0
 26 52  1  0  0  0  0
M  END
> <OPENEYE_ISO_SMILES>
c1ccc2c(c1)CC[C@@H]([C@@H]2NC(=O)c3ccc(cc3)NC(=O)NC4CC4)C(=O)O

> <OPENEYE_INCHI>
InChI=1S/C22H23N3O4/c26-20(14-5-8-15(9-6-14)23-22(29)24-16-10-11-16)25-19-17-4-2-1-3-13(17)7-12-18(19)21(27)28/h1-6,8-9,16,18-19H,7,10-12H2,(H,25,26)(H,27,28)(H2,23,24,29)/t18-,19+/m0/s1

> <OPENEYE_INCHIKEY>
BJZXTCJBAZHJRX-RBUKOAKNSA-N

> <FORMULA>
C22H23N3O4

$$$$
