8G9
  -OEChem-02242320013D

 81 83  0     1  0  0  0  0  0999 V2000
    2.4190   -0.1480   -0.5340 C   0  0  2  0  0  0  0  0  0  0  0  0
    1.0730   -0.0270    0.1330 C   0  0  0  0  0  0  0  0  0  0  0  0
    0.5070    2.1170   -1.1160 C   0  0  0  0  0  0  0  0  0  0  0  0
   -1.0180    1.3700    0.4840 C   0  0  2  0  0  0  0  0  0  0  0  0
   -2.1520    0.9660   -0.4210 C   0  0  0  0  0  0  0  0  0  0  0  0
    0.0200    3.3970   -0.4030 C   0  0  2  0  0  0  0  0  0  0  0  0
   -4.5010    0.4400   -0.8030 C   0  0  1  0  0  0  0  0  0  0  0  0
    0.3690    3.5760    1.0760 C   0  0  0  0  0  0  0  0  0  0  0  0
   -5.5830   -0.2640    0.0190 C   0  0  0  0  0  0  0  0  0  0  0  0
   -5.0270   -1.5760    0.5750 C   0  0  2  0  0  0  0  0  0  0  0  0
   -4.6920   -2.5530   -0.5750 C   0  0  0  0  0  0  0  0  0  0  0  0
   -5.0850   -3.9140    0.0420 C   0  0  0  0  0  0  0  0  0  0  0  0
    0.2920    4.9920    1.6520 C   0  0  0  0  0  0  0  0  0  0  0  0
   -6.0850   -2.2990    1.3800 C   0  0  0  0  0  0  0  0  0  0  0  0
    1.4750    2.6890    1.6520 C   0  0  0  0  0  0  0  0  0  0  0  0
    1.7810   -2.3180   -1.5970 C   0  0  0  0  0  0  0  0  0  0  0  0
    7.2900    0.2610    1.1910 C   0  0  0  0  0  0  0  0  0  0  0  0
    7.4010   -1.5770   -0.4970 C   0  0  0  0  0  0  0  0  0  0  0  0
    7.6660   -2.0950    1.9330 C   0  0  0  0  0  0  0  0  0  0  0  0
    2.2640   -0.8900   -1.8630 C   0  0  0  0  0  0  0  0  0  0  0  0
    1.2430   -0.1610   -2.7380 C   0  0  0  0  0  0  0  0  0  0  0  0
    3.6140   -0.9340   -2.5830 C   0  0  0  0  0  0  0  0  0  0  0  0
   -0.9880    2.9050    0.6560 C   0  0  2  0  0  0  0  0  0  0  0  0
    6.9490   -1.2050    0.9160 C   0  0  0  0  0  0  0  0  0  0  0  0
   -5.0930    1.6860   -1.4650 C   0  0  0  0  0  0  0  0  0  0  0  0
    4.6620   -0.7140    0.2300 C   0  0  0  0  0  0  0  0  0  0  0  0
    3.3310   -0.8930    0.3380 N   0  0  0  0  0  0  0  0  0  0  0  0
    0.2820    1.0310   -0.1340 N   0  0  0  0  0  0  0  0  0  0  0  0
   -3.3980    0.8330    0.0770 N   0  0  0  0  0  0  0  0  0  0  0  0
   -6.0990   -3.6040    1.0570 N   0  0  0  0  0  0  0  0  0  0  0  0
    5.5010   -1.3990    1.0320 N   0  0  0  0  0  0  0  0  0  0  0  0
   -6.8130   -1.7780    2.1970 O   0  0  0  0  0  0  0  0  0  0  0  0
    5.1070    0.0660   -0.5900 O   0  0  0  0  0  0  0  0  0  0  0  0
    0.7030   -0.8810    0.9110 O   0  0  0  0  0  0  0  0  0  0  0  0
   -1.9450    0.7610   -1.5980 O   0  0  0  0  0  0  0  0  0  0  0  0
   -5.6840    2.5210   -0.4680 O   0  0  0  0  0  0  0  0  0  0  0  0
    2.8250    0.8460   -0.7190 H   0  0  0  0  0  0  0  0  0  0  0  0
   -0.0760    1.9400   -2.0200 H   0  0  0  0  0  0  0  0  0  0  0  0
    1.5670    2.1970   -1.3580 H   0  0  0  0  0  0  0  0  0  0  0  0
   -1.1150    0.8840    1.4550 H   0  0  0  0  0  0  0  0  0  0  0  0
   -0.1760    4.2750   -1.0190 H   0  0  0  0  0  0  0  0  0  0  0  0
   -4.1290   -0.2380   -1.5710 H   0  0  0  0  0  0  0  0  0  0  0  0
   -5.8890    0.3800    0.8430 H   0  0  0  0  0  0  0  0  0  0  0  0
   -6.4430   -0.4740   -0.6170 H   0  0  0  0  0  0  0  0  0  0  0  0
   -4.1440   -1.3870    1.1850 H   0  0  0  0  0  0  0  0  0  0  0  0
   -5.2930   -2.3370   -1.4580 H   0  0  0  0  0  0  0  0  0  0  0  0
   -3.6290   -2.5260   -0.8130 H   0  0  0  0  0  0  0  0  0  0  0  0
   -5.5050   -4.5670   -0.7230 H   0  0  0  0  0  0  0  0  0  0  0  0
    1.2970    5.3450    1.8830 H   0  0  0  0  0  0  0  0  0  0  0  0
   -0.1670    5.6570    0.9210 H   0  0  0  0  0  0  0  0  0  0  0  0
   -0.3080    4.9820    2.5620 H   0  0  0  0  0  0  0  0  0  0  0  0
    2.3450    3.3020    1.8900 H   0  0  0  0  0  0  0  0  0  0  0  0
    1.1150    2.2020    2.5580 H   0  0  0  0  0  0  0  0  0  0  0  0
    1.7530    1.9330    0.9180 H   0  0  0  0  0  0  0  0  0  0  0  0
    0.8200   -2.2860   -1.0840 H   0  0  0  0  0  0  0  0  0  0  0  0
    1.6710   -2.8460   -2.5440 H   0  0  0  0  0  0  0  0  0  0  0  0
    2.5090   -2.8370   -0.9740 H   0  0  0  0  0  0  0  0  0  0  0  0
    8.3660    0.4060    1.1040 H   0  0  0  0  0  0  0  0  0  0  0  0
    6.7780    0.8950    0.4670 H   0  0  0  0  0  0  0  0  0  0  0  0
    6.9670    0.5270    2.1980 H   0  0  0  0  0  0  0  0  0  0  0  0
    8.4780   -1.4320   -0.5840 H   0  0  0  0  0  0  0  0  0  0  0  0
    7.1580   -2.6220   -0.6930 H   0  0  0  0  0  0  0  0  0  0  0  0
    6.8900   -0.9430   -1.2220 H   0  0  0  0  0  0  0  0  0  0  0  0
    7.3440   -1.8290    2.9400 H   0  0  0  0  0  0  0  0  0  0  0  0
    7.4230   -3.1390    1.7370 H   0  0  0  0  0  0  0  0  0  0  0  0
    8.7430   -1.9500    1.8460 H   0  0  0  0  0  0  0  0  0  0  0  0
    1.6110    0.8380   -2.9720 H   0  0  0  0  0  0  0  0  0  0  0  0
    1.0930   -0.7190   -3.6630 H   0  0  0  0  0  0  0  0  0  0  0  0
    0.2960   -0.0830   -2.2040 H   0  0  0  0  0  0  0  0  0  0  0  0
    4.3410   -1.4540   -1.9600 H   0  0  0  0  0  0  0  0  0  0  0  0
    3.5030   -1.4630   -3.5300 H   0  0  0  0  0  0  0  0  0  0  0  0
    3.9570    0.0830   -2.7730 H   0  0  0  0  0  0  0  0  0  0  0  0
   -1.9320    3.4090    0.8610 H   0  0  0  0  0  0  0  0  0  0  0  0
   -4.3030    2.2350   -1.9770 H   0  0  0  0  0  0  0  0  0  0  0  0
   -5.8540    1.3870   -2.1860 H   0  0  0  0  0  0  0  0  0  0  0  0
    2.9760   -1.5150    0.9920 H   0  0  0  0  0  0  0  0  0  0  0  0
   -3.5630    0.9980    1.0190 H   0  0  0  0  0  0  0  0  0  0  0  0
    5.1470   -2.0220    1.6870 H   0  0  0  0  0  0  0  0  0  0  0  0
   -6.0810    3.3310   -0.8170 H   0  0  0  0  0  0  0  0  0  0  0  0
   -4.2170   -4.3830    0.5040 H   0  0  0  0  0  0  0  0  0  0  0  0
   -6.7010   -4.2580    1.4460 H   0  0  0  0  0  0  0  0  0  0  0  0
 25 36  1  0  0  0  0
  7 25  1  0  0  0  0
  7  9  1  0  0  0  0
  9 10  1  0  0  0  0
  7 29  1  0  0  0  0
  5 29  1  0  0  0  0
 14 32  2  0  0  0  0
  8 13  1  0  0  0  0
  4 23  1  0  0  0  0
  8 23  1  0  0  0  0
  6 23  1  0  0  0  0
 10 14  1  0  0  0  0
 14 30  1  0  0  0  0
 10 11  1  0  0  0  0
  4  5  1  0  0  0  0
  5 35  2  0  0  0  0
  4 28  1  0  0  0  0
  8 15  1  0  0  0  0
  6  8  1  0  0  0  0
 12 30  1  0  0  0  0
 11 12  1  0  0  0  0
  3  6  1  0  0  0  0
  2 34  2  0  0  0  0
  2 28  1  0  0  0  0
  3 28  1  0  0  0  0
  1  2  1  0  0  0  0
  1 27  1  0  0  0  0
  1 20  1  0  0  0  0
 26 27  1  0  0  0  0
 20 21  1  0  0  0  0
 20 22  1  0  0  0  0
 17 24  1  0  0  0  0
 16 20  1  0  0  0  0
 26 31  1  0  0  0  0
 26 33  2  0  0  0  0
 24 31  1  0  0  0  0
 19 24  1  0  0  0  0
 18 24  1  0  0  0  0
  1 37  1  0  0  0  0
  3 38  1  0  0  0  0
  3 39  1  0  0  0  0
  4 40  1  0  0  0  0
  6 41  1  0  0  0  0
  7 42  1  0  0  0  0
  9 43  1  0  0  0  0
  9 44  1  0  0  0  0
 10 45  1  0  0  0  0
 11 46  1  0  0  0  0
 11 47  1  0  0  0  0
 12 48  1  0  0  0  0
 13 49  1  0  0  0  0
 13 50  1  0  0  0  0
 13 51  1  0  0  0  0
 15 52  1  0  0  0  0
 15 53  1  0  0  0  0
 15 54  1  0  0  0  0
 16 55  1  0  0  0  0
 16 56  1  0  0  0  0
 16 57  1  0  0  0  0
 17 58  1  0  0  0  0
 17 59  1  0  0  0  0
 17 60  1  0  0  0  0
 18 61  1  0  0  0  0
 18 62  1  0  0  0  0
 18 63  1  0  0  0  0
 19 64  1  0  0  0  0
 19 65  1  0  0  0  0
 19 66  1  0  0  0  0
 21 67  1  0  0  0  0
 21 68  1  0  0  0  0
 21 69  1  0  0  0  0
 22 70  1  0  0  0  0
 22 71  1  0  0  0  0
 22 72  1  0  0  0  0
 23 73  1  0  0  0  0
 25 74  1  0  0  0  0
 25 75  1  0  0  0  0
 27 76  1  0  0  0  0
 29 77  1  0  0  0  0
 31 78  1  0  0  0  0
 36 79  1  0  0  0  0
 12 80  1  0  0  0  0
 30 81  1  0  0  0  0
M  END
> <OPENEYE_ISO_SMILES>
CC1([C@@H]2[C@H]1[C@H](N(C2)C(=O)[C@H](C(C)(C)C)NC(=O)NC(C)(C)C)C(=O)N[C@@H](C[C@@H]3CCNC3=O)CO)C

> <OPENEYE_INCHI>
InChI=1S/C26H45N5O5/c1-24(2,3)19(29-23(36)30-25(4,5)6)22(35)31-12-16-17(26(16,7)8)18(31)21(34)28-15(13-32)11-14-9-10-27-20(14)33/h14-19,32H,9-13H2,1-8H3,(H,27,33)(H,28,34)(H2,29,30,36)/t14-,15-,16-,17-,18-,19+/m0/s1

> <OPENEYE_INCHIKEY>
BKEPDWNBCUBDEN-KOUJMVCDSA-N

> <FORMULA>
C26H45N5O5

$$$$
