@<TRIPOS>MOLECULE
/home/pku/3cl/gett_pdb/7KX5/7KX5_mol2/ligand/7KX5_X7V.pdb
 38 42 0 0 0
SMALL
GASTEIGER

@<TRIPOS>ATOM
      1  C10        5.5520    0.3660   19.6970 C.ar  401  X7V401      0.0241
      2  C11        6.3250   -0.1090   18.6830 C.ar  401  X7V401      0.0967
      3  C13        4.8740    0.9010   17.1430 C.ar  401  X7V401      0.0989
      4  C14        4.0740    1.4240   18.1070 C.ar  401  X7V401      0.0204
      5  C18        8.0670    3.2450   22.2720 C.3   401  X7V401      0.1176
      6  C19        7.7000    4.5640   22.8800 C.3   401  X7V401      0.0283
      7  C20        9.2430    2.5510   23.0390 C.ar  401  X7V401     -0.0026
      8  C21       10.5590    2.6240   22.5060 C.ar  401  X7V401     -0.0026
      9  C22       11.6320    2.0140   23.1890 C.ar  401  X7V401     -0.0003
     10  C23       11.3870    1.3230   24.3800 C.ar  401  X7V401     -0.0000
     11  C24       10.0900    1.2460   24.9090 C.ar  401  X7V401     -0.0003
     12  C25        9.0140    1.8720   24.2170 C.ar  401  X7V401     -0.0026
     13  C29        8.7390   -1.6490   24.2550 C.ar  401  X7V401      0.0013
     14  C30        9.8900   -2.0270   23.5530 C.ar  401  X7V401      0.0001
     15  C31       11.1500   -2.3460   24.3180 C.ar  401  X7V401      0.0000
     16  C32       12.4110   -2.0550   23.8090 C.ar  401  X7V401      0.0000
     17  C33       13.5210   -2.4010   24.5550 C.ar  401  X7V401      0.0000
     18  C34       13.3750   -3.0670   25.8090 C.ar  401  X7V401      0.0000
     19  O01        4.4190   -2.2830   20.4870 O.2   401  X7V401     -0.2662
     20  C02        5.4530   -2.4420   21.0730 C.2   401  X7V401      0.2880
     21  C03        5.8560   -3.9170   21.4530 C.ar  401  X7V401      0.1990
     22  C04        6.4890   -4.3330   22.6470 C.ar  401  X7V401      0.0455
     23  C05        6.6330   -5.6950   22.5910 C.ar  401  X7V401      0.0440
     24  C06        6.0640   -6.1100   21.3900 C.ar  401  X7V401      0.1798
     25  O07        5.5980   -5.0150   20.7330 O.2   401  X7V401     -0.4458
     26  N08        6.3010   -1.2630   21.4380 N.am  401  X7V401     -0.2419
     27  C09        5.9370    0.1070   21.1560 C.3   401  X7V401      0.1820
     28  N12        5.9720    0.1690   17.4190 N.ar  401  X7V401     -0.2426
     29  C15        4.4030    1.1680   19.4390 C.ar  401  X7V401      0.0010
     30  C16        7.1150    1.0830   21.3480 C.2   401  X7V401      0.2644
     31  N17        6.9050    2.3280   22.1680 N.am  401  X7V401     -0.2010
     32  O26        8.1820    0.8660   20.8210 O.2   401  X7V401     -0.2712
     33  C27        7.5590   -1.5390   22.1830 C.ar  401  X7V401      0.0549
     34  C28        7.5650   -1.3870   23.5680 C.ar  401  X7V401      0.0149
     35  C35       12.1080   -3.3700   26.3110 C.ar  401  X7V401      0.0000
     36  C36       11.0010   -3.0260   25.5770 C.ar  401  X7V401      0.0000
     37  C37        9.8600   -2.1770   22.1500 C.ar  401  X7V401      0.0013
     38  C38        8.7110   -1.9370   21.4730 C.ar  401  X7V401      0.0149
@<TRIPOS>BOND
     1     3    28   ar
     2     3     4   ar
     3    28     2   ar
     4     4    29   ar
     5     2     1   ar
     6    29     1   ar
     7     1    27    1
     8    19    20    2
     9    25    24   ar
    10    25    21   ar
    11    32    30    2
    12    20    26   am
    13    20    21    1
    14    27    30    1
    15    27    26    1
    16    30    31   am
    17    24    23   ar
    18    26    33    1
    19    21    22   ar
    20    38    37   ar
    21    38    33   ar
    22    37    14   ar
    23    31     5    1
    24    33    34   ar
    25     5     6    1
    26     5     7    1
    27     8     7   ar
    28     8     9   ar
    29    23    22   ar
    30     7    12   ar
    31     9    10   ar
    32    14    13   ar
    33    14    15    1
    34    34    13   ar
    35    16    15   ar
    36    16    17   ar
    37    12    11   ar
    38    15    36   ar
    39    10    11   ar
    40    17    18   ar
    41    36    35   ar
    42    18    35   ar
