U1A
  -OEChem-02242320043D

 37 38  0     0  0  0  0  0  0999 V2000
   -3.3230   -0.1570   -0.0530 N   0  0  0  0  0  0  0  0  0  0  0  0
    2.1070    0.3730    0.0370 C   0  0  0  0  0  0  0  0  0  0  0  0
    2.6590   -0.1410    1.1960 C   0  0  0  0  0  0  0  0  0  0  0  0
    3.7830   -0.9420    1.1300 C   0  0  0  0  0  0  0  0  0  0  0  0
   -1.2480   -0.1840    1.2310 C   0  0  0  0  0  0  0  0  0  0  0  0
   -2.7390    0.1770    1.2530 C   0  0  0  0  0  0  0  0  0  0  0  0
   -1.2300    0.0510   -1.2880 C   0  0  0  0  0  0  0  0  0  0  0  0
   -0.6450    0.3860    0.0180 N   0  0  0  0  0  0  0  0  0  0  0  0
    5.5820   -2.1020   -0.1680 C   0  0  0  0  0  0  0  0  0  0  0  0
    0.6470    1.9450    1.4280 O   0  0  0  0  0  0  0  0  0  0  0  0
    4.3560   -1.2290   -0.0950 C   0  0  0  0  0  0  0  0  0  0  0  0
   -4.3960   -0.9680   -0.1370 C   0  0  0  0  0  0  0  0  0  0  0  0
   -4.9380   -1.6320    1.1030 C   0  0  0  0  0  0  0  0  0  0  0  0
    3.8030   -0.7160   -1.2540 C   0  0  0  0  0  0  0  0  0  0  0  0
    2.6800    0.0860   -1.1880 C   0  0  0  0  0  0  0  0  0  0  0  0
   -2.7200    0.4130   -1.2660 C   0  0  0  0  0  0  0  0  0  0  0  0
    0.6660    2.1780   -1.0600 O   0  0  0  0  0  0  0  0  0  0  0  0
   -4.9260   -1.1640   -1.2100 O   0  0  0  0  0  0  0  0  0  0  0  0
    0.6690    1.3880    0.1210 S   0  0  0  0  0  0  0  0  0  0  0  0
    2.2110    0.0830    2.1530 H   0  0  0  0  0  0  0  0  0  0  0  0
    4.2150   -1.3430    2.0350 H   0  0  0  0  0  0  0  0  0  0  0  0
   -0.7580    0.2290    2.1120 H   0  0  0  0  0  0  0  0  0  0  0  0
   -1.1320   -1.2680    1.2220 H   0  0  0  0  0  0  0  0  0  0  0  0
   -2.8530    1.2450    1.4430 H   0  0  0  0  0  0  0  0  0  0  0  0
   -3.2410   -0.3920    2.0360 H   0  0  0  0  0  0  0  0  0  0  0  0
   -0.7270    0.6200   -2.0710 H   0  0  0  0  0  0  0  0  0  0  0  0
   -1.1120   -1.0150   -1.4790 H   0  0  0  0  0  0  0  0  0  0  0  0
    5.2810   -3.1450   -0.2690 H   0  0  0  0  0  0  0  0  0  0  0  0
    6.1840   -1.8120   -1.0290 H   0  0  0  0  0  0  0  0  0  0  0  0
    6.1690   -1.9800    0.7430 H   0  0  0  0  0  0  0  0  0  0  0  0
   -4.3970   -1.2670    1.9760 H   0  0  0  0  0  0  0  0  0  0  0  0
   -5.9970   -1.3980    1.2070 H   0  0  0  0  0  0  0  0  0  0  0  0
   -4.8100   -2.7120    1.0220 H   0  0  0  0  0  0  0  0  0  0  0  0
    4.2510   -0.9410   -2.2110 H   0  0  0  0  0  0  0  0  0  0  0  0
    2.2490    0.4880   -2.0930 H   0  0  0  0  0  0  0  0  0  0  0  0
   -3.2100   -0.0000   -2.1470 H   0  0  0  0  0  0  0  0  0  0  0  0
   -2.8330    1.4970   -1.2560 H   0  0  0  0  0  0  0  0  0  0  0  0
  9 11  1  0  0  0  0
 11 14  1  0  0  0  0
 14 15  2  0  0  0  0
  2 15  1  0  0  0  0
  2  3  2  0  0  0  0
  3  4  1  0  0  0  0
  4 11  2  0  0  0  0
  2 19  1  0  0  0  0
 10 19  2  0  0  0  0
 17 19  2  0  0  0  0
  8 19  1  0  0  0  0
  5  8  1  0  0  0  0
  5  6  1  0  0  0  0
  1  6  1  0  0  0  0
  1 16  1  0  0  0  0
  7 16  1  0  0  0  0
  7  8  1  0  0  0  0
  1 12  1  0  0  0  0
 12 18  2  0  0  0  0
 12 13  1  0  0  0  0
  3 20  1  0  0  0  0
  4 21  1  0  0  0  0
  5 22  1  0  0  0  0
  5 23  1  0  0  0  0
  6 24  1  0  0  0  0
  6 25  1  0  0  0  0
  7 26  1  0  0  0  0
  7 27  1  0  0  0  0
  9 28  1  0  0  0  0
  9 29  1  0  0  0  0
  9 30  1  0  0  0  0
 13 31  1  0  0  0  0
 13 32  1  0  0  0  0
 13 33  1  0  0  0  0
 14 34  1  0  0  0  0
 15 35  1  0  0  0  0
 16 36  1  0  0  0  0
 16 37  1  0  0  0  0
M  END
> <OPENEYE_ISO_SMILES>
Cc1ccc(cc1)S(=O)(=O)N2CCN(CC2)C(=O)C

> <OPENEYE_INCHI>
InChI=1S/C13H18N2O3S/c1-11-3-5-13(6-4-11)19(17,18)15-9-7-14(8-10-15)12(2)16/h3-6H,7-10H2,1-2H3

> <OPENEYE_INCHIKEY>
RSIVSBAWSQRGLN-UHFFFAOYSA-N

> <FORMULA>
C13H18N2O3S

$$$$
