7YB
  -OEChem-02242320013D

 78 81  0     1  0  0  0  0  0999 V2000
    6.2640   -1.1830   -0.1730 C   0  0  0  0  0  0  0  0  0  0  0  0
    2.5430    4.4110   -0.1630 C   0  0  0  0  0  0  0  0  0  0  0  0
    2.0620    3.1440    0.5460 C   0  0  0  0  0  0  0  0  0  0  0  0
    0.7290    2.5780    0.1320 C   0  0  0  0  0  0  0  0  0  0  0  0
   -1.9030   -0.3690   -2.1350 C   0  0  0  0  0  0  0  0  0  0  0  0
   -0.7920    0.6980   -0.1680 C   0  0  2  0  0  0  0  0  0  0  0  0
   -1.2020   -0.4550    0.7110 C   0  0  0  0  0  0  0  0  0  0  0  0
   -2.9270    0.7600   -2.2780 C   0  0  0  0  0  0  0  0  0  0  0  0
   -2.9010   -1.9500    1.6150 C   0  0  1  0  0  0  0  0  0  0  0  0
   -4.2420    0.1910   -2.8130 C   0  0  0  0  0  0  0  0  0  0  0  0
   -4.4160   -1.8600    1.8130 C   0  0  0  0  0  0  0  0  0  0  0  0
    5.8010   -2.4750   -0.0070 C   0  0  0  0  0  0  0  0  0  0  0  0
   -4.7630   -0.5310    2.4880 C   0  0  2  0  0  0  0  0  0  0  0  0
   -6.2870   -0.4280    2.7280 C   0  0  0  0  0  0  0  0  0  0  0  0
   -6.7550    0.3280    1.4650 C   0  0  0  0  0  0  0  0  0  0  0  0
   -4.0010   -0.4550   -4.1790 C   0  0  0  0  0  0  0  0  0  0  0  0
   -4.4540    0.6270    1.5660 C   0  0  0  0  0  0  0  0  0  0  0  0
   -2.9770   -1.5830   -4.0360 C   0  0  0  0  0  0  0  0  0  0  0  0
   -1.6620   -1.0140   -3.5010 C   0  0  0  0  0  0  0  0  0  0  0  0
    6.6320   -3.4440    0.5220 C   0  0  0  0  0  0  0  0  0  0  0  0
    2.0630    4.4820    1.2880 C   0  0  0  0  0  0  0  0  0  0  0  0
   -0.5880    0.2000   -1.6000 C   0  0  0  0  0  0  0  0  0  0  0  0
    7.9270   -3.1220    0.8830 C   0  0  0  0  0  0  0  0  0  0  0  0
    8.3900   -1.8310    0.7160 C   0  0  0  0  0  0  0  0  0  0  0  0
    7.5610   -0.8620    0.1830 C   0  0  0  0  0  0  0  0  0  0  0  0
    5.3570   -0.1260   -0.7490 C   0  0  0  0  0  0  0  0  0  0  0  0
   -2.5420   -3.3280    1.0550 C   0  0  0  0  0  0  0  0  0  0  0  0
    3.7770    1.5080   -0.0200 C   0  0  0  0  0  0  0  0  0  0  0  0
    3.0760    2.1580    0.9300 N   0  0  0  0  0  0  0  0  0  0  0  0
    0.4590    1.2730    0.3330 N   0  0  0  0  0  0  0  0  0  0  0  0
   -2.4690   -0.9140    0.6740 N   0  0  0  0  0  0  0  0  0  0  0  0
   -5.5870    1.0920    1.0110 N   0  0  0  0  0  0  0  0  0  0  0  0
   -3.3450    1.0720    1.3570 O   0  0  0  0  0  0  0  0  0  0  0  0
    3.6350    1.8040   -1.1900 O   0  0  0  0  0  0  0  0  0  0  0  0
   -0.1020    3.2970   -0.3820 O   0  0  0  0  0  0  0  0  0  0  0  0
   -0.3930   -0.9710    1.4520 O   0  0  0  0  0  0  0  0  0  0  0  0
    4.6360    0.5310    0.3270 O   0  0  0  0  0  0  0  0  0  0  0  0
   -3.2880   -3.5670   -0.1390 O   0  0  0  0  0  0  0  0  0  0  0  0
    3.6130    4.5120   -0.3450 H   0  0  0  0  0  0  0  0  0  0  0  0
    1.8950    4.8360   -0.9290 H   0  0  0  0  0  0  0  0  0  0  0  0
   -2.2830   -1.1180   -1.4410 H   0  0  0  0  0  0  0  0  0  0  0  0
   -1.5720    1.4590   -0.1560 H   0  0  0  0  0  0  0  0  0  0  0  0
   -3.0990    1.2190   -1.3040 H   0  0  0  0  0  0  0  0  0  0  0  0
   -2.5460    1.5100   -2.9710 H   0  0  0  0  0  0  0  0  0  0  0  0
   -2.4000   -1.8040    2.5710 H   0  0  0  0  0  0  0  0  0  0  0  0
   -4.6220   -0.5590   -2.1190 H   0  0  0  0  0  0  0  0  0  0  0  0
   -4.9710    0.9940   -2.9140 H   0  0  0  0  0  0  0  0  0  0  0  0
   -4.9130   -1.9170    0.8450 H   0  0  0  0  0  0  0  0  0  0  0  0
   -4.7490   -2.6850    2.4430 H   0  0  0  0  0  0  0  0  0  0  0  0
    4.7890   -2.7260   -0.2890 H   0  0  0  0  0  0  0  0  0  0  0  0
   -4.2190   -0.4270    3.4270 H   0  0  0  0  0  0  0  0  0  0  0  0
   -6.7410   -1.4180    2.7810 H   0  0  0  0  0  0  0  0  0  0  0  0
   -6.5020    0.1470    3.6290 H   0  0  0  0  0  0  0  0  0  0  0  0
   -7.0650   -0.3790    0.6950 H   0  0  0  0  0  0  0  0  0  0  0  0
   -7.5750    1.0030    1.7110 H   0  0  0  0  0  0  0  0  0  0  0  0
   -4.9380   -0.8600   -4.5600 H   0  0  0  0  0  0  0  0  0  0  0  0
   -3.6200    0.2950   -4.8730 H   0  0  0  0  0  0  0  0  0  0  0  0
   -3.3580   -2.3330   -3.3420 H   0  0  0  0  0  0  0  0  0  0  0  0
   -2.8050   -2.0430   -5.0100 H   0  0  0  0  0  0  0  0  0  0  0  0
   -1.2810   -0.2640   -4.1950 H   0  0  0  0  0  0  0  0  0  0  0  0
   -0.9330   -1.8180   -3.3990 H   0  0  0  0  0  0  0  0  0  0  0  0
    6.2700   -4.4530    0.6520 H   0  0  0  0  0  0  0  0  0  0  0  0
    2.8170    4.6290    2.0610 H   0  0  0  0  0  0  0  0  0  0  0  0
    1.0980    4.9530    1.4770 H   0  0  0  0  0  0  0  0  0  0  0  0
    0.1750   -0.5780   -1.6090 H   0  0  0  0  0  0  0  0  0  0  0  0
   -0.2680    1.0300   -2.2310 H   0  0  0  0  0  0  0  0  0  0  0  0
    8.5750   -3.8790    1.3000 H   0  0  0  0  0  0  0  0  0  0  0  0
    9.4020   -1.5790    0.9990 H   0  0  0  0  0  0  0  0  0  0  0  0
    7.9230    0.1470    0.0520 H   0  0  0  0  0  0  0  0  0  0  0  0
    5.9530    0.6100   -1.2880 H   0  0  0  0  0  0  0  0  0  0  0  0
    4.6470   -0.5900   -1.4330 H   0  0  0  0  0  0  0  0  0  0  0  0
   -1.4760   -3.3620    0.8300 H   0  0  0  0  0  0  0  0  0  0  0  0
   -2.7820   -4.0940    1.7930 H   0  0  0  0  0  0  0  0  0  0  0  0
    3.2420    1.9720    1.8670 H   0  0  0  0  0  0  0  0  0  0  0  0
    1.0930    0.7140    0.8090 H   0  0  0  0  0  0  0  0  0  0  0  0
   -3.0950   -0.5570    0.0240 H   0  0  0  0  0  0  0  0  0  0  0  0
   -5.6270    1.8370    0.3910 H   0  0  0  0  0  0  0  0  0  0  0  0
   -3.1110   -4.4240   -0.5500 H   0  0  0  0  0  0  0  0  0  0  0  0
 23 24  2  0  0  0  0
 20 23  1  0  0  0  0
  2 21  1  0  0  0  0
  3 21  1  0  0  0  0
 24 25  1  0  0  0  0
 12 20  2  0  0  0  0
  8 10  1  0  0  0  0
 10 16  1  0  0  0  0
  5  8  1  0  0  0  0
  2  3  1  0  0  0  0
  1 25  2  0  0  0  0
  7 36  2  0  0  0  0
  5 22  1  0  0  0  0
  6 22  1  0  0  0  0
  5 19  1  0  0  0  0
  6 30  1  0  0  0  0
  4 30  1  0  0  0  0
  3 29  1  0  0  0  0
  3  4  1  0  0  0  0
  1 12  1  0  0  0  0
  1 26  1  0  0  0  0
 16 18  1  0  0  0  0
  6  7  1  0  0  0  0
 28 29  1  0  0  0  0
  4 35  2  0  0  0  0
  7 31  1  0  0  0  0
 28 34  2  0  0  0  0
 14 15  1  0  0  0  0
 13 14  1  0  0  0  0
 28 37  1  0  0  0  0
 15 32  1  0  0  0  0
 18 19  1  0  0  0  0
 26 37  1  0  0  0  0
  9 31  1  0  0  0  0
  9 27  1  0  0  0  0
  9 11  1  0  0  0  0
 27 38  1  0  0  0  0
 11 13  1  0  0  0  0
 13 17  1  0  0  0  0
 17 32  1  0  0  0  0
 17 33  2  0  0  0  0
  2 39  1  0  0  0  0
  2 40  1  0  0  0  0
  5 41  1  0  0  0  0
  6 42  1  0  0  0  0
  8 43  1  0  0  0  0
  8 44  1  0  0  0  0
  9 45  1  0  0  0  0
 10 46  1  0  0  0  0
 10 47  1  0  0  0  0
 11 48  1  0  0  0  0
 11 49  1  0  0  0  0
 12 50  1  0  0  0  0
 13 51  1  0  0  0  0
 14 52  1  0  0  0  0
 14 53  1  0  0  0  0
 15 54  1  0  0  0  0
 15 55  1  0  0  0  0
 16 56  1  0  0  0  0
 16 57  1  0  0  0  0
 18 58  1  0  0  0  0
 18 59  1  0  0  0  0
 19 60  1  0  0  0  0
 19 61  1  0  0  0  0
 20 62  1  0  0  0  0
 21 63  1  0  0  0  0
 21 64  1  0  0  0  0
 22 65  1  0  0  0  0
 22 66  1  0  0  0  0
 23 67  1  0  0  0  0
 24 68  1  0  0  0  0
 25 69  1  0  0  0  0
 26 70  1  0  0  0  0
 26 71  1  0  0  0  0
 27 72  1  0  0  0  0
 27 73  1  0  0  0  0
 29 74  1  0  0  0  0
 30 75  1  0  0  0  0
 31 76  1  0  0  0  0
 32 77  1  0  0  0  0
 38 78  1  0  0  0  0
M  END
> <OPENEYE_ISO_SMILES>
c1ccc(cc1)COC(=O)NC2(CC2)C(=O)N[C@@H](CC3CCCCC3)C(=O)N[C@@H](C[C@@H]4CCNC4=O)CO

> <OPENEYE_INCHI>
InChI=1S/C28H40N4O6/c33-17-22(16-21-11-14-29-24(21)34)30-25(35)23(15-19-7-3-1-4-8-19)31-26(36)28(12-13-28)32-27(37)38-18-20-9-5-2-6-10-20/h2,5-6,9-10,19,21-23,33H,1,3-4,7-8,11-18H2,(H,29,34)(H,30,35)(H,31,36)(H,32,37)/t21-,22-,23-/m0/s1

> <OPENEYE_INCHIKEY>
PNFAFEUIIJFEIL-VABKMULXSA-N

> <FORMULA>
C28H40N4O6

$$$$
