@<TRIPOS>MOLECULE
/home/pku/3cl/gett_pdb/7RVR/7RVR_mol2/ligand/7RVR_7W5.pdb
 38 39 0 0 0
SMALL
GASTEIGER

@<TRIPOS>ATOM
      1  C1        -5.9820  -23.8530  -19.7810 C.ar  401  7W5401     -0.0000
      2  C10      -10.9490  -18.5720  -19.9620 C.3   401  7W5401      0.0022
      3  C11       -9.8050  -18.1510  -17.7720 C.3   401  7W5401      0.1760
      4  C12      -10.0720  -16.8910  -16.9830 C.2   401  7W5401      0.2617
      5  C13       -7.3760  -13.5260  -15.3880 C.3   401  7W5401      0.0001
      6  C14       -9.8370  -14.5060  -16.8330 C.3   401  7W5401      0.1728
      7  C15      -11.2140  -13.9250  -17.0090 C.2   401  7W5401      0.2612
      8  C17      -13.1720  -12.9320  -16.1360 C.3   401  7W5401      0.1287
      9  C19      -14.1200  -13.6910  -15.2050 C.3   401  7W5401      0.0339
     10  C2        -6.8120  -24.4580  -18.8550 C.ar  401  7W5401     -0.0002
     11  C20      -14.2080  -15.1180  -15.7210 C.3   401  7W5401      0.0861
     12  C21      -15.1470  -15.2340  -16.9220 C.3   401  7W5401      0.0534
     13  C22      -16.1260  -16.3950  -16.6470 C.2   401  7W5401      0.0627
     14  C24      -14.7850  -16.0730  -14.7220 C.2   401  7W5401      0.2453
     15  C3        -7.1890  -23.7560  -17.7140 C.ar  401  7W5401     -0.0007
     16  C30      -11.0370  -18.7760  -18.4560 C.3   401  7W5401      0.0271
     17  C31      -11.0580  -20.2760  -18.1770 C.3   401  7W5401      0.0022
     18  C32      -12.3530  -18.1410  -18.0190 C.3   401  7W5401      0.0022
     19  C34       -8.7930  -13.5920  -17.4810 C.3   401  7W5401      0.0311
     20  C35       -7.3780  -13.6980  -16.8950 C.3   401  7W5401      0.0021
     21  C36       -6.7160  -15.0380  -17.2030 C.3   401  7W5401      0.0001
     22  C37       -6.5370  -12.5640  -17.4580 C.3   401  7W5401      0.0001
     23  C4        -6.7510  -22.4590  -17.4960 C.ar  401  7W5401      0.0213
     24  C5        -5.9260  -21.8550  -18.4390 C.ar  401  7W5401     -0.0007
     25  C6        -5.5450  -22.5490  -19.5810 C.ar  401  7W5401     -0.0002
     26  C7        -7.1850  -21.7240  -16.2530 C.3   401  7W5401      0.2368
     27  C8       -13.0050  -11.4570  -15.7600 C.3   401  7W5401      0.2036
     28  C9        -7.8620  -19.4640  -17.2160 C.2   401  7W5401      0.4218
     29  N10       -9.0730  -19.0430  -16.8610 N.am  401  7W5401     -0.1611
     30  N13       -9.6630  -15.7600  -17.5380 N.am  401  7W5401     -0.1963
     31  N16      -11.8340  -13.5220  -15.9870 N.am  401  7W5401     -0.2030
     32  N23      -15.8370  -16.6860  -15.2450 N.am  401  7W5401     -0.1826
     33  O26      -14.3080  -16.2500  -13.6140 O.2   401  7W5401     -0.2730
     34  O29       -7.4110  -19.1390  -18.2900 O.2   401  7W5401     -0.2245
     35  O33      -10.5950  -16.9130  -15.8730 O.2   401  7W5401     -0.2715
     36  O38      -11.7110  -13.8380  -18.1120 O.2   401  7W5401     -0.2715
     37  O8        -7.0180  -20.3110  -16.3810 O.3   401  7W5401     -0.4285
     38  O9       -14.2690  -10.7920  -15.8160 O.3   401  7W5401     -0.2185
@<TRIPOS>BOND
     1     2    16    1
     2     1    25   ar
     3     1    10   ar
     4    25    24   ar
     5    10    15   ar
     6    16    17    1
     7    16    18    1
     8    16     3    1
     9    24    23   ar
    10    34    28    2
    11    36     7    2
    12     3     4    1
    13     3    29    1
    14    15    23   ar
    15    30     4   am
    16    30     6    1
    17    23    26    1
    18    19    20    1
    19    19     6    1
    20    22    20    1
    21    28    29   am
    22    28    37    1
    23    21    20    1
    24     7     6    1
    25     7    31   am
    26     4    35    2
    27    12    13    1
    28    12    11    1
    29    20     5    1
    30    13    32    2
    31    37    26    1
    32     8    31    1
    33     8    27    1
    34     8     9    1
    35    38    27    1
    36    11     9    1
    37    11    14    1
    38    32    14    1
    39    14    33    2
