W5A
  -OEChem-02242320043D

 27 29  0     0  0  0  0  0  0999 V2000
   -1.6550   -0.1690    0.8020 C   0  0  0  0  0  0  0  0  0  0  0  0
   -3.3810    0.6620   -0.3300 C   0  0  0  0  0  0  0  0  0  0  0  0
    2.9140    1.1590   -0.4180 C   0  0  0  0  0  0  0  0  0  0  0  0
    2.6680   -0.2200   -0.3010 C   0  0  0  0  0  0  0  0  0  0  0  0
    2.5820   -2.3720   -0.3080 C   0  0  0  0  0  0  0  0  0  0  0  0
    1.5290   -0.6390    0.4230 C   0  0  0  0  0  0  0  0  0  0  0  0
   -0.4750   -0.0700    1.7350 C   0  0  0  0  0  0  0  0  0  0  0  0
   -2.0400   -1.3210    0.2440 C   0  0  0  0  0  0  0  0  0  0  0  0
   -4.3340    1.7220   -0.8200 C   0  0  0  0  0  0  0  0  0  0  0  0
    1.0170    1.6220    0.8210 C   0  0  0  0  0  0  0  0  0  0  0  0
    4.0080    1.6130   -1.1110 N   0  0  0  0  0  0  0  0  0  0  0  0
    3.2780   -1.3370   -0.7280 N   0  0  0  0  0  0  0  0  0  0  0  0
    1.5260   -1.9630    0.3860 N   0  0  0  0  0  0  0  0  0  0  0  0
    0.7150    0.3220    0.9770 N   0  0  0  0  0  0  0  0  0  0  0  0
   -2.3930    0.8720    0.4740 N   0  0  0  0  0  0  0  0  0  0  0  0
    2.0660    2.0220    0.1490 N   0  0  0  0  0  0  0  0  0  0  0  0
   -3.4460   -0.9900   -0.7660 S   0  0  0  0  0  0  0  0  0  0  0  0
    2.8330   -3.4050   -0.5010 H   0  0  0  0  0  0  0  0  0  0  0  0
   -0.6800    0.6770    2.5020 H   0  0  0  0  0  0  0  0  0  0  0  0
   -0.3030   -1.0380    2.2070 H   0  0  0  0  0  0  0  0  0  0  0  0
   -1.5730   -2.2840    0.3870 H   0  0  0  0  0  0  0  0  0  0  0  0
   -5.0650    1.2710   -1.4910 H   0  0  0  0  0  0  0  0  0  0  0  0
   -4.8490    2.1690    0.0310 H   0  0  0  0  0  0  0  0  0  0  0  0
   -3.7770    2.4930   -1.3530 H   0  0  0  0  0  0  0  0  0  0  0  0
    0.3680    2.3640    1.2620 H   0  0  0  0  0  0  0  0  0  0  0  0
    4.6170    0.9810   -1.5240 H   0  0  0  0  0  0  0  0  0  0  0  0
    4.1720    2.5660   -1.1890 H   0  0  0  0  0  0  0  0  0  0  0  0
  2  9  1  0  0  0  0
  2 17  1  0  0  0  0
  2 15  2  0  0  0  0
  8 17  1  0  0  0  0
  1 15  1  0  0  0  0
  1  8  2  0  0  0  0
  1  7  1  0  0  0  0
  7 14  1  0  0  0  0
 10 14  1  0  0  0  0
 10 16  2  0  0  0  0
  6 14  1  0  0  0  0
  3 16  1  0  0  0  0
  6 13  2  0  0  0  0
  4  6  1  0  0  0  0
  5 13  1  0  0  0  0
  3  4  2  0  0  0  0
  3 11  1  0  0  0  0
  4 12  1  0  0  0  0
  5 12  2  0  0  0  0
  5 18  1  0  0  0  0
  7 19  1  0  0  0  0
  7 20  1  0  0  0  0
  8 21  1  0  0  0  0
  9 22  1  0  0  0  0
  9 23  1  0  0  0  0
  9 24  1  0  0  0  0
 10 25  1  0  0  0  0
 11 26  1  0  0  0  0
 11 27  1  0  0  0  0
M  END
> <OPENEYE_ISO_SMILES>
Cc1nc(cs1)Cn2cnc(c-3ncnc23)N

> <OPENEYE_INCHI>
InChI=1S/C10H10N6S/c1-6-15-7(3-17-6)2-16-5-14-9(11)8-10(16)13-4-12-8/h3-5H,2,11H2,1H3

> <OPENEYE_INCHIKEY>
RQKKPLMKELKMJU-UHFFFAOYSA-N

> <FORMULA>
C10H10N6S

$$$$
