@<TRIPOS>MOLECULE
/home/pku/3cl/gett_pdb/7KXB/7KXB_mol2/ligand/7KXB_XB1.pdb
 29 31 0 0 0
SMALL
GASTEIGER

@<TRIPOS>ATOM
      1  C10       35.4500  -36.2090    7.8140 C.3   201  XB1201      0.0920
      2  C15       39.0700  -39.7360    5.1990 C.3   201  XB1201      0.0913
      3  C17       40.6470  -38.1380    4.3920 C.3   201  XB1201      0.1047
      4  C20       39.6300  -38.3500    1.7470 C.3   201  XB1201      0.1595
      5  C21       39.2170  -39.3310    2.8680 C.3   201  XB1201      0.1047
      6  C26       34.6180  -29.8490    8.4810 C.ar  201  XB1201      0.3350
      7  C28       34.9530  -28.6280   10.5490 C.3   201  XB1201      0.1383
      8  C02       33.9110  -30.9260   10.5400 C.ar  201  XB1201      0.2850
      9  C03       33.4890  -32.0010    9.8010 C.ar  201  XB1201      0.1735
     10  C04       33.6370  -32.0150    8.3290 C.ar  201  XB1201      0.1720
     11  C06       32.7200  -33.8830    8.9770 C.ar  201  XB1201      0.1916
     12  C08       33.3500  -36.7740    9.3940 C.3   201  XB1201      0.0666
     13  C09       34.8330  -36.2840    9.2730 C.3   201  XB1201      0.0310
     14  C12       36.0980  -38.5330    6.9280 C.3   201  XB1201      0.2056
     15  C14       37.5670  -39.8750    5.4870 C.3   201  XB1201      0.1084
     16  C18       40.9940  -37.1170    3.2920 C.3   201  XB1201      0.1595
     17  C25       34.3830  -30.8700    6.2260 C.3   201  XB1201      0.1366
     18  N05       33.1700  -33.1750    7.7890 N.ar  201  XB1201     -0.2020
     19  N11       35.1520  -37.3700    6.9230 N.3   201  XB1201     -0.1920
     20  N13       37.0030  -38.5410    5.7950 N.3   201  XB1201     -0.1905
     21  N16       39.2730  -38.6860    4.2130 N.3   201  XB1201     -0.2672
     22  N23       32.8970  -33.2560   10.1410 N.ar  201  XB1201     -0.2132
     23  N24       34.2110  -30.8970    7.6730 N.ar  201  XB1201     -0.2627
     24  N27       34.4930  -29.8070    9.8680 N.ar  201  XB1201     -0.2454
     25  O01       33.8290  -30.7830   11.9150 O.2   201  XB1201     -0.2651
     26  O19       40.0180  -37.0770    2.2590 O.3   201  XB1201     -0.3508
     27  O29       35.1460  -28.8340    7.9040 O.2   201  XB1201     -0.2461
     28  S07       32.0260  -35.5330    8.8190 S.3   201  XB1201     -0.0756
     29  S22       35.0710  -40.1740    6.7680 S.3   201  XB1201     -0.0446
@<TRIPOS>BOND
     1     4    26    1
     2     4     5    1
     3    26    16    1
     4     5    21    1
     5    16     3    1
     6    21     3    1
     7    21     2    1
     8     2    15    1
     9    15    20    1
    10    20    14    1
    11    17    23    1
    12    29    14    1
    13    19    14    1
    14    19     1    1
    15    23    10   ar
    16    23     6   ar
    17    18    10   ar
    18    18    11   ar
    19     1    13    1
    20    27     6    2
    21    10     9   ar
    22     6    24   ar
    23    28    11    1
    24    28    12    1
    25    11    22   ar
    26    13    12    1
    27     9    22   ar
    28     9     8   ar
    29    24     8   ar
    30    24     7    1
    31     8    25    2
