@<TRIPOS>MOLECULE
/home/pku/3cl/gett_pdb/5S3G/5S3G_mol2/ligand/5S3G_JHS.pdb
 17 18 0 0 0
SMALL
GASTEIGER

@<TRIPOS>ATOM
      1  C10       19.9000   28.1420    3.7910 C.3   601  JHS601      0.1425
      2  C13       20.5550   28.9270    7.0530 C.ar  601  JHS601     -0.0042
      3  C15       22.2310   30.1990    8.2070 C.ar  601  JHS601     -0.0000
      4  C17       22.8690   28.3690    6.7940 C.ar  601  JHS601     -0.0042
      5  C01       19.8310   25.8550   10.0820 C.3   601  JHS601      0.0964
      6  C02       20.8000   25.8980    8.9360 C.2   601  JHS601      0.2419
      7  O03       22.0100   26.0000    9.1140 O.2   601  JHS601     -0.2733
      8  N04       20.2740   25.8110    7.7110 N.am  601  JHS601     -0.2051
      9  C05       21.0700   25.6520    6.5050 C.3   601  JHS601      0.1192
     10  C06       21.1520   26.9030    5.6140 C.3   601  JHS601      0.0438
     11  C07       22.2340   26.6450    4.5370 C.3   601  JHS601      0.0379
     12  C08       22.1740   27.6750    3.4260 C.3   601  JHS601      0.1425
     13  O09       20.8750   27.7430    2.8320 O.3   601  JHS601     -0.3538
     14  C11       19.7870   27.1430    4.9230 C.3   601  JHS601      0.0379
     15  C12       21.5340   28.1120    6.4850 C.ar  601  JHS601     -0.0210
     16  C14       20.9020   29.9590    7.9120 C.ar  601  JHS601     -0.0003
     17  C16       23.2120   29.4060    7.6470 C.ar  601  JHS601     -0.0003
@<TRIPOS>BOND
     1    13    12    1
     2    13     1    1
     3    12    11    1
     4     1    14    1
     5    11    10    1
     6    14    10    1
     7    10    15    1
     8    10     9    1
     9    15     4   ar
    10    15     2   ar
    11     9     8    1
    12     4    17   ar
    13     2    16   ar
    14    17     3   ar
    15     8     6   am
    16    16     3   ar
    17     6     7    2
    18     6     5    1
