@<TRIPOS>MOLECULE
/home/pku/3cl/gett_pdb/7S74/7S74_mol2/ligand/7S74_I68.pdb
 35 35 0 0 0
SMALL
GASTEIGER

@<TRIPOS>ATOM
      1  C1         4.4240   -0.2420   27.8720 C.3   401  I68401      0.0804
      2  C10        9.4800    2.8910   28.7880 C.3   401  I68401      0.0022
      3  C11        8.1450    2.6190   26.7040 C.3   401  I68401      0.1742
      4  C12        8.1240    2.7220   25.2060 C.2   401  I68401      0.2617
      5  C13        4.9110    3.3500   21.6340 C.3   401  I68401      0.0001
      6  C14        7.5350    4.0040   23.2700 C.3   401  I68401      0.1728
      7  C15        8.8650    4.5390   22.8070 C.2   401  I68401      0.2612
      8  C17       10.9240    4.2670   21.5710 C.3   401  I68401      0.1287
      9  C19       11.8150    3.0330   21.4830 C.3   401  I68401      0.0335
     10  C2         4.1370   -1.7200   27.6610 C.3   401  I68401      0.0218
     11  C20       11.9260    2.4340   22.8850 C.3   401  I68401      0.0818
     12  C21       12.7190    3.3460   23.8190 C.3   401  I68401      0.0326
     13  C22       13.6170    2.4130   24.6360 C.3   401  I68401      0.1156
     14  C24       12.7120    1.1590   22.9130 C.2   401  I68401      0.2410
     15  C3         3.5390    0.5690   26.9290 C.3   401  I68401      0.0218
     16  C30        9.5430    2.9060   27.2660 C.3   401  I68401      0.0270
     17  C31       10.5920    1.9010   26.7950 C.3   401  I68401      0.0022
     18  C32        9.9770    4.2950   26.8230 C.3   401  I68401      0.0022
     19  C34        6.4200    4.9650   22.8660 C.3   401  I68401      0.0311
     20  C35        5.0170    4.3580   22.7730 C.3   401  I68401      0.0021
     21  C36        4.6260    3.6640   24.0690 C.3   401  I68401      0.0001
     22  C37        4.0110    5.4710   22.5090 C.3   401  I68401      0.0001
     23  C4         4.0920    0.0930   29.3200 C.3   401  I68401      0.0218
     24  C8        10.8740    5.0710   20.2740 C.3   401  I68401      0.2036
     25  C9         6.4270    1.2040   27.6450 C.2   401  I68401      0.3395
     26  N10        7.6520    1.3270   27.1210 N.am  401  I68401     -0.1796
     27  N13        7.6060    3.8470   24.7070 N.am  401  I68401     -0.1963
     28  N16        9.5700    3.8470   21.9200 N.am  401  I68401     -0.2030
     29  N23       13.6380    1.1710   23.8800 N.am  401  I68401     -0.2054
     30  N8         5.8380    0.0060   27.5820 N.am  401  I68401     -0.1906
     31  O26       12.4900    0.2450   22.1460 O.2   401  I68401     -0.2734
     32  O29        5.8780    2.1650   28.1620 O.2   401  I68401     -0.2492
     33  O33        8.5570    1.8200   24.4900 O.2   401  I68401     -0.2715
     34  O38        9.2710    5.5900   23.2600 O.2   401  I68401     -0.2715
     35  O9        12.1570    5.6290   19.9630 O.3   401  I68401     -0.2185
@<TRIPOS>BOND
     1    35    24    1
     2    24     8    1
     3     9     8    1
     4     9    11    1
     5     8    28    1
     6     5    20    1
     7    28     7   am
     8    31    14    2
     9    22    20    1
    10    20    19    1
    11    20    21    1
    12     7    34    2
    13     7     6    1
    14    19     6    1
    15    11    14    1
    16    11    12    1
    17    14    29   am
    18     6    27    1
    19    12    13    1
    20    29    13    1
    21    33     4    2
    22    27     4   am
    23     4     3    1
    24     3    26    1
    25     3    16    1
    26    17    16    1
    27    18    16    1
    28    15     1    1
    29    26    25   am
    30    16     2    1
    31    30    25   am
    32    30     1    1
    33    25    32    2
    34    10     1    1
    35     1    23    1
