@<TRIPOS>MOLECULE
/home/pku/3cl/gett_pdb/5SSL/5SSL_mol2/ligand/5SSL_RR3.pdb
 38 40 0 0 0
SMALL
GASTEIGER

@<TRIPOS>ATOM
      1  C18      -45.6310  -34.0440   -0.6550 C.ar  201  RR3201     -0.0336
      2  C16      -45.4220  -32.7230    1.3560 C.ar  201  RR3201     -0.0567
      3  C17      -46.1080  -33.6480    0.5860 C.ar  201  RR3201     -0.0573
      4  C15      -44.2510  -32.1850    0.8710 C.ar  201  RR3201     -0.0247
      5  C14      -43.4760  -31.1790    1.7130 C.3   201  RR3201      0.1098
      6  C20      -45.9700  -35.1070   -2.9340 C.1   201  RR3201      0.0672
      7  C19      -46.4220  -35.0630   -1.4780 C.3   201  RR3201      0.0598
      8  C01      -48.4270  -28.9680    2.7760 C.3   201  RR3201      0.0310
      9  C04      -48.0720  -28.6950    6.2750 C.ar  201  RR3201      0.0755
     10  C05      -46.7280  -29.0740    5.9440 C.ar  201  RR3201      0.1136
     11  C07      -44.4970  -29.6200    5.9550 C.ar  201  RR3201      0.1189
     12  C09      -45.5750  -29.5420    3.9190 C.ar  201  RR3201      0.1666
     13  C22      -44.4490  -33.5060   -1.1410 C.ar  201  RR3201     -0.0573
     14  C23      -43.7720  -32.5720   -0.3720 C.ar  201  RR3201     -0.0567
     15  C24      -46.7550  -29.2100    4.5830 C.ar  201  RR3201      0.1278
     16  N02      -47.9930  -28.9310    4.1560 N.ar  201  RR3201     -0.2618
     17  N03      -48.7940  -28.6240    5.1790 N.ar  201  RR3201     -0.1771
     18  N06      -45.5840  -29.2900    6.6120 N.ar  201  RR3201     -0.2322
     19  N08      -44.4720  -29.7580    4.6260 N.ar  201  RR3201     -0.2173
     20  N10      -45.6240  -29.6790    2.4980 N.pl3 201  RR3201     -0.2018
     21  N21      -45.6280  -35.1540   -4.0120 N.1   201  RR3201     -0.1962
     22  O12      -43.2490  -28.5820    2.1120 O.2   201  RR3201     -0.1548
     23  O13      -44.4910  -29.2100    0.2010 O.2   201  RR3201     -0.1548
     24  S11      -44.2150  -29.5520    1.5890 S.O2  201  RR3201      0.0484
     25 H161      -45.7940  -32.4160    2.3290 H     201  RR3201      0.0621
     26 H171      -47.0210  -34.0730    0.9610 H     201  RR3201      0.0621
     27 H141      -42.4790  -31.1090    1.3130 H     201  RR3201      0.0568
     28 H142      -43.4670  -31.4720    2.7560 H     201  RR3201      0.0568
     29 H191      -46.3250  -36.0490   -1.0090 H     201  RR3201      0.0467
     30 H192      -47.4630  -34.7920   -1.4780 H     201  RR3201      0.0467
     31 H013      -47.7650  -28.3710    2.1580 H     201  RR3201      0.0473
     32 H011      -49.4300  -28.5750    2.7320 H     201  RR3201      0.0473
     33 H012      -48.4210  -29.9950    2.4140 H     201  RR3201      0.0473
     34 H041      -48.4410  -28.4910    7.2540 H     201  RR3201      0.0870
     35 H071      -43.6190  -29.7860    6.5450 H     201  RR3201      0.1048
     36 H221      -44.0660  -33.8000   -2.1160 H     201  RR3201      0.0621
     37 H231      -42.8530  -32.1490   -0.7430 H     201  RR3201      0.0621
     38 H101      -46.4630  -29.9390    2.0490 H     201  RR3201      0.1749
@<TRIPOS>BOND
     1    21     6    3
     2     6     7    1
     3    36    13    1
     4     7    30    1
     5     7    29    1
     6     7     1    1
     7    13     1   ar
     8    13    14   ar
     9    37    14    1
    10     1     3   ar
    11    14     4   ar
    12    23    24    2
    13     3    26    1
    14     3     2   ar
    15     4     2   ar
    16     4     5    1
    17    27     5    1
    18     2    25    1
    19    24     5    1
    20    24    22    2
    21    24    20    1
    22     5    28    1
    23    38    20    1
    24    31     8    1
    25    33     8    1
    26    20    12    1
    27    32     8    1
    28     8    16    1
    29    12    15   ar
    30    12    19   ar
    31    16    15   ar
    32    16    17   ar
    33    15    10   ar
    34    19    11   ar
    35    17     9   ar
    36    10     9   ar
    37    10    18   ar
    38    11    35    1
    39    11    18   ar
    40     9    34    1
