WQ7
  -OEChem-02242320043D

 20 20  0     0  0  0  0  0  0999 V2000
    3.6460   -0.1940    0.2300 N   0  0  0  0  0  0  0  0  0  0  0  0
   -1.9900   -1.4780    0.0710 C   0  0  0  0  0  0  0  0  0  0  0  0
   -2.7090   -0.3040    0.3350 C   0  0  0  0  0  0  0  0  0  0  0  0
   -2.0720    0.9000    0.2590 C   0  0  0  0  0  0  0  0  0  0  0  0
   -0.7090    0.9360   -0.0830 C   0  0  0  0  0  0  0  0  0  0  0  0
    2.2210   -0.2430    0.5860 C   0  0  0  0  0  0  0  0  0  0  0  0
    1.3750   -0.1610   -0.6860 C   0  0  0  0  0  0  0  0  0  0  0  0
   -0.0460   -0.2090   -0.3310 N   0  0  0  0  0  0  0  0  0  0  0  0
   -0.6780   -1.4080   -0.2550 C   0  0  0  0  0  0  0  0  0  0  0  0
   -0.1270    2.0060   -0.1550 O   0  0  0  0  0  0  0  0  0  0  0  0
    4.2260   -0.2470    1.0540 H   0  0  0  0  0  0  0  0  0  0  0  0
    3.8800   -0.9260   -0.4240 H   0  0  0  0  0  0  0  0  0  0  0  0
   -2.4810   -2.4380    0.1330 H   0  0  0  0  0  0  0  0  0  0  0  0
   -3.7560   -0.3520    0.5960 H   0  0  0  0  0  0  0  0  0  0  0  0
   -2.6090    1.8150    0.4580 H   0  0  0  0  0  0  0  0  0  0  0  0
    2.0080   -1.1770    1.1050 H   0  0  0  0  0  0  0  0  0  0  0  0
    1.9810    0.5980    1.2370 H   0  0  0  0  0  0  0  0  0  0  0  0
    1.5880    0.7730   -1.2050 H   0  0  0  0  0  0  0  0  0  0  0  0
    1.6150   -1.0020   -1.3370 H   0  0  0  0  0  0  0  0  0  0  0  0
   -0.1280   -2.3160   -0.4540 H   0  0  0  0  0  0  0  0  0  0  0  0
  3  4  2  0  0  0  0
  4  5  1  0  0  0  0
  2  3  1  0  0  0  0
  5 10  2  0  0  0  0
  5  8  1  0  0  0  0
  2  9  2  0  0  0  0
  8  9  1  0  0  0  0
  7  8  1  0  0  0  0
  6  7  1  0  0  0  0
  1  6  1  0  0  0  0
  1 11  1  0  0  0  0
  1 12  1  0  0  0  0
  2 13  1  0  0  0  0
  3 14  1  0  0  0  0
  4 15  1  0  0  0  0
  6 16  1  0  0  0  0
  6 17  1  0  0  0  0
  7 18  1  0  0  0  0
  7 19  1  0  0  0  0
  9 20  1  0  0  0  0
M  END
> <OPENEYE_ISO_SMILES>
c1ccn(c(=O)c1)CCN

> <OPENEYE_INCHI>
InChI=1S/C7H10N2O/c8-4-6-9-5-2-1-3-7(9)10/h1-3,5H,4,6,8H2

> <OPENEYE_INCHIKEY>
IZSOENLZRWXCER-UHFFFAOYSA-N

> <FORMULA>
C7H10N2O

$$$$
