@<TRIPOS>MOLECULE
/home/pku/3cl/gett_pdb/7T3Z/7T3Z_mol2/ligand/7T3Z_FHS.pdb
 34 36 0 0 0
SMALL
GASTEIGER

@<TRIPOS>ATOM
      1  C02        8.1240   -5.3620   -3.4470 C.2   401  FHS401      0.4214
      2  C04        7.4720   -7.1670   -1.8420 C.3   401  FHS401      0.1761
      3  C05        6.4290   -8.3280   -1.6660 C.3   401  FHS401      0.0312
      4  C07        4.0900   -9.2340   -2.0750 C.3   401  FHS401      0.0001
      5  C09        8.9080   -7.6610   -1.5220 C.2   401  FHS401      0.2614
      6  C11       10.8350   -8.0380    0.0790 C.3   401  FHS401      0.1287
      7  C12       11.8090   -6.9080    0.4930 C.3   401  FHS401      0.0335
      8  C13       11.6690   -5.6210   -0.2870 C.3   401  FHS401      0.0818
      9  C16       13.3420   -5.4370   -2.1050 C.3   401  FHS401      0.1156
     10  C19       10.7510   -9.1250    1.1690 C.3   401  FHS401      0.2036
     11  C23        8.3930   -3.4830   -4.9600 C.3   401  FHS401      0.1711
     12  C27       11.5590    0.0310   -6.0300 C.3   401  FHS401      0.0986
     13  C29       12.0230    0.8420   -8.4200 C.2   401  FHS401      0.2299
     14  N15       13.5890   -4.3830   -1.0850 N.am  401  FHS401     -0.2054
     15  C06        4.9950   -7.9910   -2.1010 C.3   401  FHS401      0.0022
     16  C08        4.3820   -6.8190   -1.3360 C.3   401  FHS401      0.0001
     17  C14       12.6730   -4.4670   -0.0370 C.2   401  FHS401      0.2410
     18  C17       11.8900   -5.8220   -1.7920 C.3   401  FHS401      0.0326
     19  C24        9.9040   -3.2410   -4.8050 C.3   401  FHS401      0.0479
     20  C25        9.9760   -2.1730   -5.9250 C.3   401  FHS401      0.0285
     21  C26       10.5010   -0.8540   -5.3230 C.3   401  FHS401      0.0262
     22  C30       12.2860    0.8310   -9.9230 C.3   401  FHS401      0.0952
     23  C38       11.8470   -1.6670   -7.8080 C.2   401  FHS401      0.0629
     24  C39       10.9150   -2.6600   -7.0470 C.2   401  FHS401     -0.0103
     25  C40        8.5640   -2.7970   -6.4020 C.3   401  FHS401      0.0479
     26  N03        7.5350   -6.5500   -3.1440 N.am  401  FHS401     -0.1611
     27  N10        9.4710   -7.6220   -0.2910 N.am  401  FHS401     -0.2030
     28  N28       11.8200   -0.1970   -7.4620 N.am  401  FHS401     -0.2578
     29  O01        8.6830   -4.6740   -2.5810 O.2   401  FHS401     -0.2246
     30  O18       12.6170   -3.7690    0.9290 O.2   401  FHS401     -0.2734
     31  O20       12.0260   -9.6980    1.3540 O.3   401  FHS401     -0.2185
     32  O21        9.5570   -8.1090   -2.5030 O.2   401  FHS401     -0.2715
     33  O22        8.1360   -4.8600   -4.7530 O.3   401  FHS401     -0.4373
     34  O37       11.9490    2.0200   -7.9490 O.2   401  FHS401     -0.2745
@<TRIPOS>BOND
     1    22    13    1
     2    13    34    2
     3    13    28   am
     4    23    28    1
     5    23    24    2
     6    28    12    1
     7    24    20    1
     8    25    20    1
     9    25    11    1
    10    12    21    1
    11    20    21    1
    12    20    19    1
    13    11    19    1
    14    11    33    1
    15    33     1    1
    16     1    26   am
    17     1    29    2
    18    26     2    1
    19    32     5    2
    20     9    18    1
    21     9    14    1
    22    15     4    1
    23    15     3    1
    24    15    16    1
    25     2     3    1
    26     2     5    1
    27    18     8    1
    28     5    27   am
    29    14    17   am
    30    27     6    1
    31     8    17    1
    32     8     7    1
    33    17    30    2
    34     6     7    1
    35     6    10    1
    36    10    31    1
