WX6
  -OEChem-02242320043D

 35 37  0     0  0  0  0  0  0999 V2000
   -3.0930   -1.0020    1.4910 C   0  0  0  0  0  0  0  0  0  0  0  0
   -2.0440   -1.3660    0.4250 C   0  0  0  0  0  0  0  0  0  0  0  0
   -0.7280    0.0140   -1.0810 C   0  0  0  0  0  0  0  0  0  0  0  0
   -3.9970    1.2270    0.9020 C   0  0  0  0  0  0  0  0  0  0  0  0
   -3.0240    0.4730    1.8030 C   0  0  0  0  0  0  0  0  0  0  0  0
   -3.4540    1.5740   -0.4200 C   0  0  0  0  0  0  0  0  0  0  0  0
   -3.1110    0.2900   -1.2160 C   0  0  0  0  0  0  0  0  0  0  0  0
    3.1690    1.4420    0.3150 C   0  0  0  0  0  0  0  0  0  0  0  0
    1.6260    0.0030   -0.2000 C   0  0  0  0  0  0  0  0  0  0  0  0
    0.4720   -0.7010   -0.6000 C   0  0  0  0  0  0  0  0  0  0  0  0
    0.4990   -2.0960   -0.5250 C   0  0  0  0  0  0  0  0  0  0  0  0
    1.6400   -2.7280   -0.0690 C   0  0  0  0  0  0  0  0  0  0  0  0
    2.7430   -0.7270    0.2520 C   0  0  0  0  0  0  0  0  0  0  0  0
    1.9470    1.3090   -0.1400 N   0  0  0  0  0  0  0  0  0  0  0  0
    2.7070   -2.0460    0.2980 N   0  0  0  0  0  0  0  0  0  0  0  0
    3.7050    0.2140    0.5680 N   0  0  0  0  0  0  0  0  0  0  0  0
   -1.9490   -0.3440   -0.6350 N   0  0  0  0  0  0  0  0  0  0  0  0
    3.8050    2.6200    0.4990 O   0  0  0  0  0  0  0  0  0  0  0  0
   -0.6140    0.9240   -1.8780 O   0  0  0  0  0  0  0  0  0  0  0  0
   -4.0880   -1.2460    1.1170 H   0  0  0  0  0  0  0  0  0  0  0  0
   -2.9000   -1.5730    2.3990 H   0  0  0  0  0  0  0  0  0  0  0  0
   -1.0710   -1.4680    0.9070 H   0  0  0  0  0  0  0  0  0  0  0  0
   -2.3150   -2.3200   -0.0270 H   0  0  0  0  0  0  0  0  0  0  0  0
   -4.8860    0.6120    0.7600 H   0  0  0  0  0  0  0  0  0  0  0  0
   -4.2920    2.1470    1.4070 H   0  0  0  0  0  0  0  0  0  0  0  0
   -3.2940    0.6370    2.8460 H   0  0  0  0  0  0  0  0  0  0  0  0
   -2.0110    0.8350    1.6280 H   0  0  0  0  0  0  0  0  0  0  0  0
   -4.1930    2.1550   -0.9730 H   0  0  0  0  0  0  0  0  0  0  0  0
   -2.5490    2.1690   -0.2930 H   0  0  0  0  0  0  0  0  0  0  0  0
   -3.9570   -0.3970   -1.1770 H   0  0  0  0  0  0  0  0  0  0  0  0
   -2.9020    0.5510   -2.2530 H   0  0  0  0  0  0  0  0  0  0  0  0
   -0.3630   -2.6750   -0.8210 H   0  0  0  0  0  0  0  0  0  0  0  0
    1.6590   -3.8070   -0.0130 H   0  0  0  0  0  0  0  0  0  0  0  0
    4.5950    0.0340    0.9100 H   0  0  0  0  0  0  0  0  0  0  0  0
    3.6790    3.0020    1.3780 H   0  0  0  0  0  0  0  0  0  0  0  0
  3 19  2  0  0  0  0
 11 12  2  0  0  0  0
 10 11  1  0  0  0  0
  3 10  1  0  0  0  0
  3 17  1  0  0  0  0
 12 15  1  0  0  0  0
  9 10  2  0  0  0  0
  1  2  1  0  0  0  0
  1  5  1  0  0  0  0
 13 15  2  0  0  0  0
  2 17  1  0  0  0  0
  9 13  1  0  0  0  0
  9 14  1  0  0  0  0
 13 16  1  0  0  0  0
  7 17  1  0  0  0  0
  8 14  2  0  0  0  0
  8 16  1  0  0  0  0
  4  5  1  0  0  0  0
  8 18  1  0  0  0  0
  4  6  1  0  0  0  0
  6  7  1  0  0  0  0
  1 20  1  0  0  0  0
  1 21  1  0  0  0  0
  2 22  1  0  0  0  0
  2 23  1  0  0  0  0
  4 24  1  0  0  0  0
  4 25  1  0  0  0  0
  5 26  1  0  0  0  0
  5 27  1  0  0  0  0
  6 28  1  0  0  0  0
  6 29  1  0  0  0  0
  7 30  1  0  0  0  0
  7 31  1  0  0  0  0
 11 32  1  0  0  0  0
 12 33  1  0  0  0  0
 16 34  1  0  0  0  0
 18 35  1  0  0  0  0
M  END
> <OPENEYE_ISO_SMILES>
c1cnc2c(c1C(=O)N3CCCCCC3)nc([nH]2)O

> <OPENEYE_INCHI>
InChI=1S/C13H16N4O2/c18-12(17-7-3-1-2-4-8-17)9-5-6-14-11-10(9)15-13(19)16-11/h5-6H,1-4,7-8H2,(H2,14,15,16,19)

> <OPENEYE_INCHIKEY>
VRIFLYXZFJUMPV-UHFFFAOYSA-N

> <FORMULA>
C13H16N4O2

$$$$
