@<TRIPOS>MOLECULE
/home/pku/3cl/gett_pdb/7LZZ/7LZZ_mol2/ligand/7LZZ_YMS.pdb
 34 36 0 0 0
SMALL
GASTEIGER

@<TRIPOS>ATOM
      1  C02       10.3830    7.5470   22.2550 C.2   401  YMS401      0.4214
      2  C04       10.7750    5.1050   22.0050 C.3   401  YMS401      0.1761
      3  C05       11.4620    3.9960   22.7900 C.3   401  YMS401      0.0312
      4  C06       12.9470    4.2850   22.9770 C.3   401  YMS401      0.0022
      5  C07       13.5300    3.4490   24.1130 C.3   401  YMS401      0.0001
      6  C08       13.7100    3.9960   21.6940 C.3   401  YMS401      0.0001
      7  C09        9.3830    4.6620   21.5990 C.2   401  YMS401      0.2614
      8  C11        7.8240    3.7840   19.8660 C.3   401  YMS401      0.1287
      9  C12        7.3500    4.6500   18.7050 C.3   401  YMS401      0.0335
     10  C13        7.0640    6.0270   19.1230 C.3   401  YMS401      0.0818
     11  C14        6.5820    6.8840   17.8700 C.2   401  YMS401      0.2410
     12  C16        5.3070    7.3220   19.8280 C.3   401  YMS401      0.1156
     13  C17        5.8710    6.0880   20.0550 C.3   401  YMS401      0.0326
     14  C19        7.8680    2.2870   19.5280 C.3   401  YMS401      0.2036
     15  C23        9.9320    9.8760   22.6170 C.3   401  YMS401      0.1705
     16  C24       11.1500   10.7950   22.7140 C.3   401  YMS401      0.0440
     17  C25       10.7910   12.2690   22.5000 C.3   401  YMS401      0.0081
     18  C26        9.6700   12.6980   23.4480 C.3   401  YMS401      0.0226
     19  C27        9.3400   14.1980   23.2980 C.ar  401  YMS401     -0.0225
     20  C28        8.3390   14.6370   22.4390 C.ar  401  YMS401     -0.0043
     21  C29        8.0510   15.9900   22.3300 C.ar  401  YMS401     -0.0003
     22  C30        8.7690   16.9080   23.0760 C.ar  401  YMS401     -0.0000
     23  C31        9.7660   16.4760   23.9370 C.ar  401  YMS401     -0.0003
     24  C32       10.0500   15.1230   24.0500 C.ar  401  YMS401     -0.0043
     25  C33        8.4300   11.8370   23.1780 C.3   401  YMS401      0.0081
     26  C34        8.7360   10.3650   23.4330 C.3   401  YMS401      0.0440
     27  N03       10.6520    6.2610   22.8470 N.am  401  YMS401     -0.1611
     28  N10        9.1500    4.2160   20.2470 N.am  401  YMS401     -0.2030
     29  N15        5.5430    7.6310   18.3000 N.am  401  YMS401     -0.2054
     30  O01       10.2680    7.6680   21.0770 O.2   401  YMS401     -0.2246
     31  O18        7.0450    6.8570   16.7840 O.2   401  YMS401     -0.2734
     32  O20        8.2380    1.6210   20.7030 O.3   401  YMS401     -0.2185
     33  O21        8.5000    4.6980   22.3830 O.2   401  YMS401     -0.2715
     34  O22       10.2750    8.6200   23.1390 O.3   401  YMS401     -0.4373
@<TRIPOS>BOND
     1    31    11    2
     2    11    29   am
     3    11    10    1
     4    29    12    1
     5     9    10    1
     6     9     8    1
     7    10    13    1
     8    14     8    1
     9    14    32    1
    10    12    13    1
    11     8    28    1
    12    28     7   am
    13    30     1    2
    14     7     2    1
    15     7    33    2
    16     6     4    1
    17     2     3    1
    18     2    27    1
    19     1    27   am
    20     1    34    1
    21    21    20   ar
    22    21    22   ar
    23    20    19   ar
    24    17    16    1
    25    17    18    1
    26    15    16    1
    27    15    34    1
    28    15    26    1
    29     3     4    1
    30     4     5    1
    31    22    23   ar
    32    25    26    1
    33    25    18    1
    34    19    18    1
    35    19    24   ar
    36    23    24   ar
