@<TRIPOS>MOLECULE
/home/pku/3cl/gett_pdb/8CY7/8CY7_mol2/ligand/8CY7_NAG.pdb
 24 24 0 0 0
SMALL
GASTEIGER

@<TRIPOS>ATOM
      1  C1       201.5480  235.9830  134.8120 C.3     1  NAG1        0.1597
      2  C2       200.5200  237.0200  135.2680 C.3     1  NAG1        0.1118
      3  C3       199.1080  236.5510  134.9300 C.3     1  NAG1        0.1482
      4  C4       199.0030  236.2060  133.4510 C.3     1  NAG1        0.1527
      5  C5       200.0780  235.1920  133.0750 C.3     1  NAG1        0.1144
      6  C6       200.1060  234.8820  131.5970 C.3     1  NAG1        0.0731
      7  C7       200.0770  238.3360  137.2930 C.2     1  NAG1        0.2292
      8  C8       200.3070  238.4530  138.7690 C.3     1  NAG1        0.0138
      9  N2       200.6440  237.2840  136.6930 N.am    1  NAG1       -0.2089
     10  O3       198.1750  237.5760  135.2560 O.3     1  NAG1       -0.2262
     11  O4       197.7190  235.6640  133.1630 O.3     1  NAG1       -0.2255
     12  O5       201.3720  235.7100  133.4140 O.3     1  NAG1       -0.3570
     13  O6       200.4110  236.0390  130.8300 O.3     1  NAG1       -0.3924
     14  O7       199.4090  239.1570  136.6710 O.2     1  NAG1       -0.2744
     15  H2       200.6870  237.8500  134.7830 H       1  NAG1        0.0577
     16  H3       198.9030  235.7560  135.4570 H       1  NAG1        0.0676
     17  H4       199.1330  237.0180  132.9250 H       1  NAG1        0.0683
     18  H5       199.9240  234.3660  133.5720 H       1  NAG1        0.0647
     19  H61      199.2330  234.5400  131.3250 H       1  NAG1        0.0584
     20  H62      200.7830  234.2000  131.4270 H       1  NAG1        0.0584
     21  H81      199.8460  239.2440  139.1080 H       1  NAG1        0.0323
     22  H82      201.2640  238.5340  138.9450 H       1  NAG1        0.0323
     23  H83      199.9600  237.6580  139.2160 H       1  NAG1        0.0323
     24  HO6      200.8110  235.7970  130.0750 H       1  NAG1        0.2095
@<TRIPOS>BOND
     1    24    13    1
     2    13     6    1
     3    19     6    1
     4    20     6    1
     5     6     5    1
     6    17     4    1
     7     5    12    1
     8     5     4    1
     9     5    18    1
    10    11     4    1
    11    12     1    1
    12     4     3    1
    13    15     2    1
    14     1     2    1
    15     3    10    1
    16     3     2    1
    17     3    16    1
    18     2     9    1
    19    14     7    2
    20     9     7   am
    21     7     8    1
    22     8    22    1
    23     8    21    1
    24     8    23    1
