R0H
  -OEChem-02242320033D

 42 45  0     1  0  0  0  0  0999 V2000
   -2.5060   -2.1680   -0.1120 C   0  0  0  0  0  0  0  0  0  0  0  0
   -2.2700    1.5000    0.1360 C   0  0  0  0  0  0  0  0  0  0  0  0
   -3.3150    2.3950    0.0550 C   0  0  0  0  0  0  0  0  0  0  0  0
   -4.6120    1.9390   -0.1380 C   0  0  0  0  0  0  0  0  0  0  0  0
   -4.8700    0.5880   -0.2520 C   0  0  0  0  0  0  0  0  0  0  0  0
   -3.8280   -0.3290   -0.1720 C   0  0  0  0  0  0  0  0  0  0  0  0
   -2.5170    0.1340    0.0240 C   0  0  0  0  0  0  0  0  0  0  0  0
   -0.6680   -3.5480    0.0390 C   0  0  0  0  0  0  0  0  0  0  0  0
    6.5060    0.0060   -0.3810 C   0  0  0  0  0  0  0  0  0  0  0  0
    4.1230    0.0390   -0.4040 C   0  0  0  0  0  0  0  0  0  0  0  0
    2.7860    0.6200   -0.0210 C   0  0  2  0  0  0  0  0  0  0  0  0
    2.5790    0.5280    1.5050 C   0  0  0  0  0  0  0  0  0  0  0  0
    1.3280   -0.3580    1.6870 C   0  0  0  0  0  0  0  0  0  0  0  0
   -0.2870   -1.2820    0.2260 C   0  0  0  0  0  0  0  0  0  0  0  0
   -1.6600   -1.0610    0.0630 C   0  0  0  0  0  0  0  0  0  0  0  0
    1.6430   -0.2190   -0.6330 C   0  0  0  0  0  0  0  0  0  0  0  0
    2.6870    2.0740   -0.4870 C   0  0  0  0  0  0  0  0  0  0  0  0
   -5.6290    2.8250   -0.2160 F   0  0  0  0  0  0  0  0  0  0  0  0
    0.5830   -0.2220    0.4080 N   0  0  2  0  0  0  0  0  0  0  0  0
   -3.7940   -1.7120   -0.2500 N   0  0  0  0  0  0  0  0  0  0  0  0
   -1.9640   -3.3860   -0.1190 N   0  0  0  0  0  0  0  0  0  0  0  0
    0.1600   -2.5360    0.2130 N   0  0  0  0  0  0  0  0  0  0  0  0
    5.2550    0.6200    0.0260 O   0  0  0  0  0  0  0  0  0  0  0  0
    3.7320    2.8390    0.1150 O   0  0  0  0  0  0  0  0  0  0  0  0
    4.1770   -0.9490   -1.0970 O   0  0  0  0  0  0  0  0  0  0  0  0
   -1.2620    1.8570    0.2870 H   0  0  0  0  0  0  0  0  0  0  0  0
   -3.1240    3.4540    0.1420 H   0  0  0  0  0  0  0  0  0  0  0  0
   -5.8830    0.2430   -0.4020 H   0  0  0  0  0  0  0  0  0  0  0  0
   -0.2660   -4.5510    0.0270 H   0  0  0  0  0  0  0  0  0  0  0  0
    7.3400    0.5730    0.0330 H   0  0  0  0  0  0  0  0  0  0  0  0
    6.5450   -1.0190   -0.0130 H   0  0  0  0  0  0  0  0  0  0  0  0
    6.5730    0.0040   -1.4690 H   0  0  0  0  0  0  0  0  0  0  0  0
    3.4440    0.0630    1.9770 H   0  0  0  0  0  0  0  0  0  0  0  0
    2.4070    1.5190    1.9240 H   0  0  0  0  0  0  0  0  0  0  0  0
    1.6180   -1.3960    1.8490 H   0  0  0  0  0  0  0  0  0  0  0  0
    0.7250    0.0020    2.5200 H   0  0  0  0  0  0  0  0  0  0  0  0
    1.2760    0.2480   -1.5470 H   0  0  0  0  0  0  0  0  0  0  0  0
    1.9820   -1.2350   -0.8330 H   0  0  0  0  0  0  0  0  0  0  0  0
    2.7840    2.1150   -1.5720 H   0  0  0  0  0  0  0  0  0  0  0  0
    1.7200    2.4840   -0.1930 H   0  0  0  0  0  0  0  0  0  0  0  0
   -4.5700   -2.2780   -0.3840 H   0  0  0  0  0  0  0  0  0  0  0  0
    3.7300    3.7730   -0.1360 H   0  0  0  0  0  0  0  0  0  0  0  0
  9 23  1  0  0  0  0
 10 23  1  0  0  0  0
 12 13  1  0  0  0  0
 13 19  1  0  0  0  0
 14 15  1  0  0  0  0
  7 15  1  0  0  0  0
  6  7  2  0  0  0  0
  4  5  2  0  0  0  0
  2  3  2  0  0  0  0
  3  4  1  0  0  0  0
  4 18  1  0  0  0  0
  5  6  1  0  0  0  0
  6 20  1  0  0  0  0
  1 20  1  0  0  0  0
  1 21  1  0  0  0  0
  8 21  2  0  0  0  0
  8 22  1  0  0  0  0
 14 19  1  0  0  0  0
 16 19  1  0  0  0  0
 11 12  1  0  0  0  0
 11 17  1  0  0  0  0
 17 24  1  0  0  0  0
 10 11  1  0  0  0  0
 10 25  2  0  0  0  0
 11 16  1  0  0  0  0
 14 22  2  0  0  0  0
  1 15  2  0  0  0  0
  2  7  1  0  0  0  0
  2 26  1  0  0  0  0
  3 27  1  0  0  0  0
  5 28  1  0  0  0  0
  8 29  1  0  0  0  0
  9 30  1  0  0  0  0
  9 31  1  0  0  0  0
  9 32  1  0  0  0  0
 12 33  1  0  0  0  0
 12 34  1  0  0  0  0
 13 35  1  0  0  0  0
 13 36  1  0  0  0  0
 16 37  1  0  0  0  0
 16 38  1  0  0  0  0
 17 39  1  0  0  0  0
 17 40  1  0  0  0  0
 20 41  1  0  0  0  0
 24 42  1  0  0  0  0
M  END
> <OPENEYE_ISO_SMILES>
COC(=O)[C@@]1(CC[N@@](C1)c2c3c4ccc(cc4[nH]c3ncn2)F)CO

> <OPENEYE_INCHI>
InChI=1S/C17H17FN4O3/c1-25-16(24)17(8-23)4-5-22(7-17)15-13-11-3-2-10(18)6-12(11)21-14(13)19-9-20-15/h2-3,6,9,23H,4-5,7-8H2,1H3,(H,19,20,21)/t17-/m1/s1

> <OPENEYE_INCHIKEY>
OVLJZTWXOSQLFV-QGZVFWFLSA-N

> <FORMULA>
C17H17FN4O3

$$$$
