@<TRIPOS>MOLECULE
/home/pku/3cl/gett_pdb/6Z72/6Z72_mol2/ligand/6Z72_A3R.pdb
 34 37 0 0 0
SMALL
GASTEIGER

@<TRIPOS>ATOM
      1  C3N       -3.6700  -20.1720    9.6370 C.3   401  A3R401      0.0543
      2  C2N       -4.6740  -21.2330    9.1900 C.3   401  A3R401      0.1708
      3  O2N       -5.3890  -21.6630   10.3450 O.3   401  A3R401     -0.2216
      4  C1N       -5.6190  -20.4710    8.2410 C.3   401  A3R401      0.1215
      5  N4N       -5.4120  -19.0180    8.5090 N.3   401  A3R401     -0.2141
      6  C4N       -4.5890  -18.9410    9.7340 C.3   401  A3R401      0.1054
      7  C5N       -3.7320  -17.6880    9.6790 C.3   401  A3R401      0.1664
      8  O5N       -4.4440  -16.6070   10.2640 O.3   401  A3R401     -0.3124
      9  PB        -4.0440  -15.1100    9.8440 P.3   401  A3R401      0.2189
     10  O2B       -2.4530  -14.9180   10.0280 O.2   401  A3R401     -0.5170
     11  O1B       -4.8430  -14.1330   10.6290 O.3   401  A3R401     -0.4371
     12  O3A       -4.4170  -14.9500    8.2860 O.3   401  A3R401     -0.2703
     13  PA        -5.8240  -14.7670    7.5220 P.3   401  A3R401      0.2189
     14  O1A       -6.8640  -15.3850    8.3540 O.3   401  A3R401     -0.4371
     15  O2A       -5.7060  -15.4750    6.0820 O.2   401  A3R401     -0.5170
     16  O5'       -6.0730  -13.1850    7.3300 O.3   401  A3R401     -0.3112
     17  C5'       -5.0200  -12.2910    6.9210 C.3   401  A3R401      0.1813
     18  C4'       -5.5760  -11.0580    6.1780 C.3   401  A3R401      0.1801
     19  O4'       -5.7710  -11.3390    4.7630 O.3   401  A3R401     -0.3306
     20  C3'       -6.9650  -10.5940    6.7280 C.3   401  A3R401      0.2161
     21  O3'       -7.1470   -9.1650    6.6320 O.3   401  A3R401     -0.2175
     22  C2'       -7.9550  -11.2860    5.7810 C.3   401  A3R401      0.2337
     23  O2'       -9.1780  -10.5430    5.7630 O.3   401  A3R401     -0.2155
     24  C1'       -7.1920  -11.1580    4.4510 C.3   401  A3R401      0.2409
     25  N9        -7.5950  -12.1610    3.4680 N.ar  401  A3R401     -0.2693
     26  C8        -8.2460  -13.3550    3.6570 C.ar  401  A3R401      0.1816
     27  N7        -8.3960  -13.9780    2.5140 N.ar  401  A3R401     -0.2193
     28  C5        -7.8310  -13.2250    1.5330 C.ar  401  A3R401      0.1518
     29  C4        -7.3110  -12.0530    2.1340 C.ar  401  A3R401      0.1692
     30  N3        -6.6890  -11.1290    1.3930 N.ar  401  A3R401     -0.2048
     31  C2        -6.5720  -11.3000    0.0890 C.ar  401  A3R401      0.2016
     32  N1        -7.0480  -12.3850   -0.5210 N.ar  401  A3R401     -0.2040
     33  C6        -7.6770  -13.3660    0.1400 C.ar  401  A3R401      0.1919
     34  N6        -8.1760  -14.4880   -0.5180 N.pl3 401  A3R401     -0.1054
@<TRIPOS>BOND
     1    32    31   ar
     2    32    33   ar
     3    34    33    1
     4    31    30   ar
     5    33    28   ar
     6    30    29   ar
     7    28    29   ar
     8    28    27   ar
     9    29    25   ar
    10    27    26   ar
    11    25    26   ar
    12    25    24    1
    13    24    19    1
    14    24    22    1
    15    19    18    1
    16    23    22    1
    17    22    20    1
    18    15    13    2
    19    18    20    1
    20    18    17    1
    21    21    20    1
    22    17    16    1
    23    16    13    1
    24    13    12    1
    25    13    14    1
    26     4     5    1
    27     4     2    1
    28    12     9    1
    29     5     6    1
    30     2     1    1
    31     2     3    1
    32     1     6    1
    33     7     6    1
    34     7     8    1
    35     9    10    2
    36     9     8    1
    37     9    11    1
