GDP
  -OEChem-02242320023D

 43 45  0     1  0  0  0  0  0999 V2000
   -5.7430   -1.4710    0.4750 P   0  0  0  0  0  0  0  0  0  0  0  0
   -6.8290   -0.8310   -0.3000 O   0  0  0  0  0  0  0  0  0  0  0  0
   -6.2930   -1.8850    1.9300 O   0  0  0  0  0  0  0  0  0  0  0  0
   -5.2340   -2.7870   -0.3010 O   0  0  0  0  0  0  0  0  0  0  0  0
   -4.5190   -0.4380    0.6380 O   0  0  0  0  0  0  0  0  0  0  0  0
   -3.8210    0.6330   -0.3400 P   0  0  1  0  0  0  0  0  0  0  0  0
   -3.7180    0.0630   -1.7020 O   0  0  0  0  0  0  0  0  0  0  0  0
   -4.7080    1.9760   -0.3860 O   0  0  0  0  0  0  0  0  0  0  0  0
   -2.3480    0.9810    0.2080 O   0  0  0  0  0  0  0  0  0  0  0  0
   -1.4340    1.8230   -0.4970 C   0  0  0  0  0  0  0  0  0  0  0  0
   -0.1330    1.9430    0.2990 C   0  0  1  0  0  0  0  0  0  0  0  0
    0.5330    0.6700    0.3440 O   0  0  0  0  0  0  0  0  0  0  0  0
    0.8200    2.9330   -0.3990 C   0  0  1  0  0  0  0  0  0  0  0  0
    1.1250    4.0280    0.4670 O   0  0  0  0  0  0  0  0  0  0  0  0
    2.0910    2.0980   -0.6860 C   0  0  1  0  0  0  0  0  0  0  0  0
    3.2710    2.8610   -0.4280 O   0  0  0  0  0  0  0  0  0  0  0  0
    1.9520    0.9350    0.3290 C   0  0  2  0  0  0  0  0  0  0  0  0
    2.6910   -0.2430   -0.1320 N   0  0  0  0  0  0  0  0  0  0  0  0
    2.2000   -1.2520   -0.9080 C   0  0  0  0  0  0  0  0  0  0  0  0
    3.1310   -2.1340   -1.1250 N   0  0  0  0  0  0  0  0  0  0  0  0
    4.2720   -1.7460   -0.5040 C   0  0  0  0  0  0  0  0  0  0  0  0
    5.5710   -2.2950   -0.3960 C   0  0  0  0  0  0  0  0  0  0  0  0
    5.8500   -3.3500   -0.9390 O   0  0  0  0  0  0  0  0  0  0  0  0
    6.4950   -1.6200    0.3240 N   0  0  0  0  0  0  0  0  0  0  0  0
    6.1710   -0.4410    0.9270 C   0  0  0  0  0  0  0  0  0  0  0  0
    7.1300    0.2220    1.6510 N   0  0  0  0  0  0  0  0  0  0  0  0
    4.9680    0.0790    0.8340 N   0  0  0  0  0  0  0  0  0  0  0  0
    4.0030   -0.5290    0.1330 C   0  0  0  0  0  0  0  0  0  0  0  0
   -7.0330   -2.5080    1.9080 H   0  0  0  0  0  0  0  0  0  0  0  0
   -4.5210   -3.2590    0.1510 H   0  0  0  0  0  0  0  0  0  0  0  0
   -4.8180    2.4040    0.4740 H   0  0  0  0  0  0  0  0  0  0  0  0
   -1.2220    1.3900   -1.4750 H   0  0  0  0  0  0  0  0  0  0  0  0
   -1.8740    2.8110   -0.6250 H   0  0  0  0  0  0  0  0  0  0  0  0
   -0.3490    2.2850    1.3120 H   0  0  0  0  0  0  0  0  0  0  0  0
    0.3800    3.2940   -1.3290 H   0  0  0  0  0  0  0  0  0  0  0  0
    1.7220    4.6830    0.0780 H   0  0  0  0  0  0  0  0  0  0  0  0
    2.0880    1.7240   -1.7100 H   0  0  0  0  0  0  0  0  0  0  0  0
    3.3570    3.6520   -0.9790 H   0  0  0  0  0  0  0  0  0  0  0  0
    2.2950    1.2440    1.3160 H   0  0  0  0  0  0  0  0  0  0  0  0
    1.1900   -1.3100   -1.2850 H   0  0  0  0  0  0  0  0  0  0  0  0
    7.3920   -1.9770    0.4120 H   0  0  0  0  0  0  0  0  0  0  0  0
    8.0230   -0.1500    1.7280 H   0  0  0  0  0  0  0  0  0  0  0  0
    6.9150    1.0620    2.0860 H   0  0  0  0  0  0  0  0  0  0  0  0
  1  2  2  0  0  0  0
  1  3  1  0  0  0  0
  1  4  1  0  0  0  0
  1  5  1  0  0  0  0
  3 29  1  0  0  0  0
  4 30  1  0  0  0  0
  5  6  1  0  0  0  0
  6  7  2  0  0  0  0
  6  8  1  0  0  0  0
  6  9  1  0  0  0  0
  8 31  1  0  0  0  0
  9 10  1  0  0  0  0
 10 11  1  0  0  0  0
 10 32  1  0  0  0  0
 10 33  1  0  0  0  0
 11 12  1  0  0  0  0
 11 13  1  0  0  0  0
 11 34  1  0  0  0  0
 12 17  1  0  0  0  0
 13 14  1  0  0  0  0
 13 15  1  0  0  0  0
 13 35  1  0  0  0  0
 14 36  1  0  0  0  0
 15 16  1  0  0  0  0
 15 17  1  0  0  0  0
 15 37  1  0  0  0  0
 16 38  1  0  0  0  0
 17 18  1  0  0  0  0
 17 39  1  0  0  0  0
 18 19  1  0  0  0  0
 18 28  1  0  0  0  0
 19 20  2  0  0  0  0
 19 40  1  0  0  0  0
 20 21  1  0  0  0  0
 21 22  1  0  0  0  0
 21 28  2  0  0  0  0
 22 23  2  0  0  0  0
 22 24  1  0  0  0  0
 24 25  1  0  0  0  0
 24 41  1  0  0  0  0
 25 26  1  0  0  0  0
 25 27  2  0  0  0  0
 26 42  1  0  0  0  0
 26 43  1  0  0  0  0
 27 28  1  0  0  0  0
M  END
> <OPENEYE_ISO_SMILES>
c1nc2c(=O)[nH]c(nc2n1[C@H]3[C@@H]([C@@H]([C@H](O3)CO[P@](=O)(O)OP(=O)(O)O)O)O)N

> <OPENEYE_INCHI>
InChI=1S/C10H15N5O11P2/c11-10-13-7-4(8(18)14-10)12-2-15(7)9-6(17)5(16)3(25-9)1-24-28(22,23)26-27(19,20)21/h2-3,5-6,9,16-17H,1H2,(H,22,23)(H2,19,20,21)(H3,11,13,14,18)/t3-,5-,6-,9-/m1/s1

> <OPENEYE_INCHIKEY>
QGWNDRXFNXRZMB-UUOKFMHZSA-N

> <FORMULA>
C10H15N5O11P2

$$$$
