@<TRIPOS>MOLECULE
/home/pku/3cl/gett_pdb/5SPB/5SPB_mol2/ligand/5SPB_S09.pdb
 52 55 0 0 0
SMALL
GASTEIGER

@<TRIPOS>ATOM
      1  C18      -49.8670  -29.1640    6.4460 C.ar  201  S09201      0.0348
      2  C16      -49.9680  -29.1190    4.0640 C.ar  201  S09201     -0.0479
      3  C17      -50.6270  -29.0780    5.2870 C.ar  201  S09201     -0.0397
      4  C15      -48.5810  -29.2190    4.0220 C.ar  201  S09201      0.0368
      5  C14      -47.8380  -29.2770    2.6880 C.2   201  S09201      0.2445
      6  C12      -45.6840  -29.7170    1.4630 C.3   201  S09201      0.0572
      7  C11      -45.5120  -28.3780    0.7240 C.ar  201  S09201     -0.0199
      8  C10      -46.3950  -27.6350   -0.0610 C.ar  201  S09201     -0.0563
      9  C20      -51.6810  -28.6110    8.1670 C.2   201  S09201      0.3081
     10  C02      -44.1180  -31.1220    2.8450 C.2   201  S09201      0.0472
     11  C03      -44.2640  -30.2010    1.6380 C.3   201  S09201      0.0252
     12  C04      -43.4300  -28.9430    1.7890 C.3   201  S09201     -0.0140
     13  C05      -44.2010  -27.9260    0.8970 C.ar  201  S09201     -0.0003
     14  C06      -43.7760  -26.7340    0.3050 C.ar  201  S09201      0.1204
     15  C08      -44.6670  -25.9980   -0.4620 C.ar  201  S09201     -0.0199
     16  C09      -45.9710  -26.4470   -0.6440 C.ar  201  S09201     -0.0580
     17  C22      -52.9060  -28.2160   10.3710 C.ar  201  S09201      0.0348
     18  C23      -53.5360  -27.1090    9.8560 C.ar  201  S09201     -0.0404
     19  C24      -54.5690  -26.5310   10.5510 C.ar  201  S09201     -0.0600
     20  C25      -54.9290  -27.0500   11.7810 C.ar  201  S09201     -0.0616
     21  C26      -54.2650  -28.1410   12.3170 C.ar  201  S09201     -0.0600
     22  C27      -53.2240  -28.7250   11.6180 C.ar  201  S09201     -0.0404
     23  C29      -48.4910  -29.2480    6.4060 C.ar  201  S09201     -0.0397
     24  C30      -47.8440  -29.2900    5.1920 C.ar  201  S09201     -0.0479
     25  N13      -46.4280  -29.6180    2.7070 N.am  201  S09201     -0.3039
     26  N19      -50.3810  -29.0900    7.7860 N.am  201  S09201     -0.2692
     27  N21      -51.7950  -28.6770    9.6000 N.am  201  S09201     -0.2692
     28  O01      -43.5890  -30.6930    3.9030 O.co2 201  S09201     -0.5495
     29  O07      -42.4670  -26.2640    0.4830 O.3   201  S09201     -0.5065
     30  O28      -52.5350  -28.2800    7.4170 O.2   201  S09201     -0.2522
     31  O31      -48.3920  -29.0550    1.6670 O.2   201  S09201     -0.2702
     32  O32      -44.5250  -32.3120    2.7780 O.co2 201  S09201     -0.5495
     33 H161      -50.5330  -29.0650    3.1410 H     201  S09201      0.0626
     34 H171      -51.7150  -29.0050    5.3280 H     201  S09201      0.0636
     35 H121      -46.2080  -30.4110    0.8110 H     201  S09201      0.0555
     36 H101      -47.4150  -27.9730   -0.2050 H     201  S09201      0.0621
     37 H031      -43.9720  -30.7130    0.7300 H     201  S09201      0.0385
     38 H042      -43.4270  -28.5980    2.8210 H     201  S09201      0.0321
     39 H041      -42.4190  -29.0840    1.3990 H     201  S09201      0.0321
     40 H081      -44.3440  -25.0780   -0.9270 H     201  S09201      0.0654
     41 H091      -46.6540  -25.8670   -1.2470 H     201  S09201      0.0619
     42 H231      -53.2400  -26.7380    8.8820 H     201  S09201      0.0636
     43 H241      -55.0790  -25.6800   10.1260 H     201  S09201      0.0618
     44 H251      -55.7280  -26.5920   12.3320 H     201  S09201      0.0618
     45 H261      -54.5560  -28.5340   13.2820 H     201  S09201      0.0618
     46 H271      -52.7080  -29.5910   12.0250 H     201  S09201      0.0636
     47 H291      -47.9280  -29.3080    7.3370 H     201  S09201      0.0636
     48 H301      -46.7640  -29.3660    5.1690 H     201  S09201      0.0626
     49 H131      -46.0080  -29.8170    3.5930 H     201  S09201      0.1496
     50 H191      -49.7620  -29.2930    8.5400 H     201  S09201      0.1564
     51 H211      -50.9670  -28.9300   10.0970 H     201  S09201      0.1564
     52 H071      -42.4810  -25.5010    1.0540 H     201  S09201      0.2921
@<TRIPOS>UNITY_ATOM_ATTR
28 1
charge -1
@<TRIPOS>BOND
     1    41    16    1
     2    40    15    1
     3    16    15   ar
     4    16     8   ar
     5    15    14   ar
     6    36     8    1
     7     8     7   ar
     8    14    29    1
     9    14    13   ar
    10    29    52    1
    11     7    13   ar
    12     7     6    1
    13    37    11    1
    14    35     6    1
    15    13    12    1
    16    39    12    1
    17     6    11    1
    18     6    25    1
    19    11    12    1
    20    11    10    1
    21    31     5    2
    22    12    38    1
    23     5    25   am
    24     5     4    1
    25    25    49    1
    26    32    10   ar
    27    10    28   ar
    28    33     2    1
    29     4     2   ar
    30     4    24   ar
    31     2     3   ar
    32    48    24    1
    33    24    23   ar
    34     3    34    1
    35     3     1   ar
    36    23     1   ar
    37    23    47    1
    38     1    26    1
    39    30     9    2
    40    26     9   am
    41    26    50    1
    42     9    27   am
    43    42    18    1
    44    27    51    1
    45    27    17    1
    46    18    17   ar
    47    18    19   ar
    48    43    19    1
    49    17    22   ar
    50    19    20   ar
    51    22    46    1
    52    22    21   ar
    53    20    21   ar
    54    20    44    1
    55    21    45    1
