2AK
  -OEChem-02242320003D

 19 20  0     0  0  0  0  0  0999 V2000
   -2.3640    0.8930    0.0000 Br  0  0  0  0  0  0  0  0  0  0  0  0
   -0.8930   -0.2950    0.0020 C   0  0  0  0  0  0  0  0  0  0  0  0
   -1.1090   -1.6610   -0.0010 C   0  0  0  0  0  0  0  0  0  0  0  0
   -0.0440   -2.5450   -0.0010 C   0  0  0  0  0  0  0  0  0  0  0  0
   -0.2980   -4.0300   -0.0040 C   0  0  0  0  0  0  0  0  0  0  0  0
    1.2510   -2.0680    0.0030 C   0  0  0  0  0  0  0  0  0  0  0  0
    0.4030    0.2070    0.0010 C   0  0  0  0  0  0  0  0  0  0  0  0
    0.8840    1.5150   -0.0010 N   0  0  0  0  0  0  0  0  0  0  0  0
    2.2280    1.5440   -0.0020 C   0  0  0  0  0  0  0  0  0  0  0  0
    2.9240    2.5370   -0.0030 O   0  0  0  0  0  0  0  0  0  0  0  0
    2.7100    0.1230    0.0000 C   0  0  0  0  0  0  0  0  0  0  0  0
    1.4810   -0.6920    0.0070 C   0  0  0  0  0  0  0  0  0  0  0  0
    3.8580   -0.2690    0.0000 O   0  0  0  0  0  0  0  0  0  0  0  0
   -2.1200   -2.0420   -0.0040 H   0  0  0  0  0  0  0  0  0  0  0  0
   -0.3570   -4.3860   -1.0330 H   0  0  0  0  0  0  0  0  0  0  0  0
    0.5160   -4.5400    0.5110 H   0  0  0  0  0  0  0  0  0  0  0  0
   -1.2380   -4.2390    0.5070 H   0  0  0  0  0  0  0  0  0  0  0  0
    2.0830   -2.7570    0.0040 H   0  0  0  0  0  0  0  0  0  0  0  0
    0.3210    2.3050   -0.0030 H   0  0  0  0  0  0  0  0  0  0  0  0
  1  2  1  0  0  0  0
  2  3  2  0  0  0  0
  3  4  1  0  0  0  0
  2  7  1  0  0  0  0
  4  5  1  0  0  0  0
  4  6  2  0  0  0  0
  7  8  1  0  0  0  0
  7 12  2  0  0  0  0
  8  9  1  0  0  0  0
  6 12  1  0  0  0  0
 11 12  1  0  0  0  0
  9 11  1  0  0  0  0
  9 10  2  0  0  0  0
 11 13  2  0  0  0  0
  3 14  1  0  0  0  0
  5 15  1  0  0  0  0
  5 16  1  0  0  0  0
  5 17  1  0  0  0  0
  6 18  1  0  0  0  0
  8 19  1  0  0  0  0
M  END
> <OPENEYE_ISO_SMILES>
Cc1cc2c(c(c1)Br)NC(=O)C2=O

> <OPENEYE_INCHI>
InChI=1S/C9H6BrNO2/c1-4-2-5-7(6(10)3-4)11-9(13)8(5)12/h2-3H,1H3,(H,11,12,13)

> <OPENEYE_INCHIKEY>
NPDJRIGMWAQKTQ-UHFFFAOYSA-N

> <FORMULA>
C9H6BrNO2

$$$$
