FJC
  -OEChem-02242320023D

 59 62  0     1  0  0  0  0  0999 V2000
    1.7600    0.0410   -0.5260 C   0  0  0  0  0  0  0  0  0  0  0  0
    7.1680    2.7150   -0.6460 C   0  0  0  0  0  0  0  0  0  0  0  0
    6.6570    3.4260    0.4330 C   0  0  0  0  0  0  0  0  0  0  0  0
    5.3810    3.1870    0.8900 C   0  0  0  0  0  0  0  0  0  0  0  0
    4.5920    2.2230    0.2680 C   0  0  0  0  0  0  0  0  0  0  0  0
    5.1120    1.5030   -0.8250 C   0  0  0  0  0  0  0  0  0  0  0  0
    6.4140    1.7660   -1.2720 C   0  0  0  0  0  0  0  0  0  0  0  0
    4.1020    0.6050   -1.2470 C   0  0  0  0  0  0  0  0  0  0  0  0
    3.0290    0.7780   -0.4330 C   0  0  0  0  0  0  0  0  0  0  0  0
    3.3160    1.7640    0.4920 N   0  0  0  0  0  0  0  0  0  0  0  0
    1.6100   -0.8040   -1.3880 O   0  0  0  0  0  0  0  0  0  0  0  0
    0.7630    0.3020    0.3420 N   0  0  0  0  0  0  0  0  0  0  0  0
   -0.5010   -0.4330    0.2490 C   0  0  2  0  0  0  0  0  0  0  0  0
   -1.6080    0.3940    0.8500 C   0  0  0  0  0  0  0  0  0  0  0  0
   -1.3650    1.4900    1.3110 O   0  0  0  0  0  0  0  0  0  0  0  0
   -0.3810   -1.7540    1.0110 C   0  0  0  0  0  0  0  0  0  0  0  0
    0.6410   -2.6320    0.3350 C   0  0  0  0  0  0  0  0  0  0  0  0
    1.9690   -2.5610    0.7110 C   0  0  0  0  0  0  0  0  0  0  0  0
    0.2510   -3.5040   -0.6640 C   0  0  0  0  0  0  0  0  0  0  0  0
    2.9080   -3.3670    0.0900 C   0  0  0  0  0  0  0  0  0  0  0  0
    2.5150   -4.2440   -0.9070 C   0  0  0  0  0  0  0  0  0  0  0  0
    1.1880   -4.3050   -1.2890 C   0  0  0  0  0  0  0  0  0  0  0  0
    4.2070   -3.2980    0.4560 F   0  0  0  0  0  0  0  0  0  0  0  0
   -7.1200   -0.7310   -1.1940 O   0  0  0  0  0  0  0  0  0  0  0  0
   -6.5320    0.3180   -1.3550 C   0  0  0  0  0  0  0  0  0  0  0  0
   -6.9420    1.3150   -2.1580 N   0  0  0  0  0  0  0  0  0  0  0  0
   -5.9990    2.4390   -2.1360 C   0  0  0  0  0  0  0  0  0  0  0  0
   -5.1310    2.2240   -0.8770 C   0  0  0  0  0  0  0  0  0  0  0  0
   -5.2300    0.6930   -0.6830 C   0  0  1  0  0  0  0  0  0  0  0  0
   -5.2760    0.3440    0.8060 C   0  0  0  0  0  0  0  0  0  0  0  0
   -3.9450    0.7210    1.4600 C   0  0  2  0  0  0  0  0  0  0  0  0
   -2.8680   -0.0830    0.8750 N   0  0  0  0  0  0  0  0  0  0  0  0
   -4.0210    0.4580    2.9410 C   0  0  0  0  0  0  0  0  0  0  0  0
   -3.2550   -0.3210    3.4560 O   0  0  0  0  0  0  0  0  0  0  0  0
    8.1710    2.9160   -0.9920 H   0  0  0  0  0  0  0  0  0  0  0  0
    7.2670    4.1740    0.9170 H   0  0  0  0  0  0  0  0  0  0  0  0
    4.9930    3.7450    1.7290 H   0  0  0  0  0  0  0  0  0  0  0  0
    6.8200    1.2180   -2.1100 H   0  0  0  0  0  0  0  0  0  0  0  0
    4.1720   -0.0920   -2.0690 H   0  0  0  0  0  0  0  0  0  0  0  0
    2.7160    2.0800    1.1850 H   0  0  0  0  0  0  0  0  0  0  0  0
    0.8820    0.9760    1.0300 H   0  0  0  0  0  0  0  0  0  0  0  0
   -0.7270   -0.6360   -0.7980 H   0  0  0  0  0  0  0  0  0  0  0  0
   -0.0680   -1.5550    2.0360 H   0  0  0  0  0  0  0  0  0  0  0  0
   -1.3470   -2.2590    1.0170 H   0  0  0  0  0  0  0  0  0  0  0  0
    2.2740   -1.8760    1.4880 H   0  0  0  0  0  0  0  0  0  0  0  0
   -0.7870   -3.5590   -0.9570 H   0  0  0  0  0  0  0  0  0  0  0  0
    3.2470   -4.8700   -1.3950 H   0  0  0  0  0  0  0  0  0  0  0  0
    0.8820   -4.9860   -2.0690 H   0  0  0  0  0  0  0  0  0  0  0  0
   -7.7560    1.2930   -2.6850 H   0  0  0  0  0  0  0  0  0  0  0  0
   -6.5390    3.3830   -2.0650 H   0  0  0  0  0  0  0  0  0  0  0  0
   -5.3770    2.4280   -3.0310 H   0  0  0  0  0  0  0  0  0  0  0  0
   -5.5480    2.7540   -0.0200 H   0  0  0  0  0  0  0  0  0  0  0  0
   -4.1000    2.5290   -1.0570 H   0  0  0  0  0  0  0  0  0  0  0  0
   -4.3900    0.1930   -1.1660 H   0  0  0  0  0  0  0  0  0  0  0  0
   -5.4480   -0.7260    0.9230 H   0  0  0  0  0  0  0  0  0  0  0  0
   -6.0850    0.8960    1.2840 H   0  0  0  0  0  0  0  0  0  0  0  0
   -3.7430    1.7780    1.2880 H   0  0  0  0  0  0  0  0  0  0  0  0
   -3.0630   -0.9590    0.5070 H   0  0  0  0  0  0  0  0  0  0  0  0
   -4.7600    0.9660    3.5430 H   0  0  0  0  0  0  0  0  0  0  0  0
  5  6  2  0  0  0  0
  4  5  1  0  0  0  0
  5 10  1  0  0  0  0
 12 13  1  0  0  0  0
  1 12  1  0  0  0  0
 13 14  1  0  0  0  0
 13 16  1  0  0  0  0
 17 18  2  0  0  0  0
 16 17  1  0  0  0  0
 17 19  1  0  0  0  0
 19 22  2  0  0  0  0
 21 22  1  0  0  0  0
 18 20  1  0  0  0  0
 14 32  1  0  0  0  0
 14 15  2  0  0  0  0
 30 31  1  0  0  0  0
 31 33  1  0  0  0  0
 31 32  1  0  0  0  0
 29 30  1  0  0  0  0
 28 29  1  0  0  0  0
 25 29  1  0  0  0  0
 26 27  1  0  0  0  0
  1  9  1  0  0  0  0
  1 11  2  0  0  0  0
  8  9  2  0  0  0  0
  9 10  1  0  0  0  0
  6  8  1  0  0  0  0
  6  7  1  0  0  0  0
  2  7  2  0  0  0  0
  2  3  1  0  0  0  0
  3  4  2  0  0  0  0
 20 21  2  0  0  0  0
 20 23  1  0  0  0  0
 25 26  1  0  0  0  0
 24 25  2  0  0  0  0
 33 34  2  0  0  0  0
 12 41  1  0  0  0  0
 13 42  1  0  0  0  0
 22 48  1  0  0  0  0
 18 45  1  0  0  0  0
 31 57  1  0  0  0  0
 29 54  1  0  0  0  0
 27 50  1  0  0  0  0
 27 51  1  0  0  0  0
  8 39  1  0  0  0  0
  7 38  1  0  0  0  0
  2 35  1  0  0  0  0
  3 36  1  0  0  0  0
  4 37  1  0  0  0  0
 16 43  1  0  0  0  0
 16 44  1  0  0  0  0
 19 46  1  0  0  0  0
 21 47  1  0  0  0  0
 30 55  1  0  0  0  0
 30 56  1  0  0  0  0
 28 52  1  0  0  0  0
 28 53  1  0  0  0  0
 33 59  1  0  0  0  0
 10 40  1  0  0  0  0
 32 58  1  0  0  0  0
 26 49  1  0  0  0  0
 27 28  1  0  0  0  0
M  END
> <OPENEYE_ISO_SMILES>
c1ccc2c(c1)cc([nH]2)C(=O)N[C@@H](Cc3cccc(c3)F)C(=O)N[C@@H](C[C@@H]4CCNC4=O)C=O

> <OPENEYE_INCHI>
InChI=1S/C25H25FN4O4/c26-18-6-3-4-15(10-18)11-21(24(33)28-19(14-31)12-17-8-9-27-23(17)32)30-25(34)22-13-16-5-1-2-7-20(16)29-22/h1-7,10,13-14,17,19,21,29H,8-9,11-12H2,(H,27,32)(H,28,33)(H,30,34)/t17-,19-,21-/m0/s1

> <OPENEYE_INCHIKEY>
HCRBVFBQANEDDM-CUWPLCDZSA-N

> <FORMULA>
C25H25FN4O4

$$$$
