@<TRIPOS>MOLECULE
/home/pku/3cl/gett_pdb/6X4I/6X4I_mol2/ligand/6X4I_U3P.pdb
 21 22 0 0 0
SMALL
GASTEIGER

@<TRIPOS>ATOM
      1  N1       -98.4670   16.2420  -29.7870 N.ar  401  U3P401     -0.2534
      2  C2       -98.8130   15.6300  -30.9780 C.ar  401  U3P401      0.3546
      3  N3       -99.9730   14.8980  -30.9340 N.ar  401  U3P401     -0.1530
      4  C4      -100.8060   14.7220  -29.8460 C.ar  401  U3P401      0.2846
      5  C5      -100.3790   15.3890  -28.6500 C.ar  401  U3P401      0.0814
      6  C6       -99.2480   16.1110  -28.6630 C.ar  401  U3P401      0.0870
      7  O2       -98.1390   15.7250  -31.9960 O.2   401  U3P401     -0.2443
      8  O4      -101.8190   14.0330  -29.9660 O.2   401  U3P401     -0.2650
      9  P        -94.4250   20.1050  -30.9970 P.3   401  U3P401      0.5327
     10  O1P      -93.8310   20.8720  -29.8290 O.3   401  U3P401     -0.1145
     11  O2P      -93.3560   19.5830  -31.9380 O.2   401  U3P401     -0.2224
     12  O3P      -95.4810   20.9100  -31.7260 O.3   401  U3P401     -0.1145
     13  O5'      -97.6820   18.7820  -26.7790 O.3   401  U3P401     -0.2176
     14  C5'      -96.2730   18.6320  -26.8680 C.3   401  U3P401      0.2141
     15  C4'      -95.8560   18.1140  -28.2260 C.3   401  U3P401      0.1804
     16  O4'      -96.5940   16.8970  -28.5190 O.3   401  U3P401     -0.3306
     17  C3'      -96.1100   19.0560  -29.4040 C.3   401  U3P401      0.1905
     18  O3'      -95.1340   18.7850  -30.4010 O.3   401  U3P401     -0.2674
     19  C2'      -97.4540   18.5440  -29.9250 C.3   401  U3P401      0.2311
     20  O2'      -97.7340   18.8800  -31.2680 O.3   401  U3P401     -0.2156
     21  C1'      -97.2260   17.0420  -29.7720 C.3   401  U3P401      0.2420
@<TRIPOS>BOND
     1     7     2    2
     2    11     9    2
     3    12     9    1
     4    20    19    1
     5     9    18    1
     6     9    10    1
     7     2     3   ar
     8     2     1   ar
     9     3     4   ar
    10    18    17    1
    11     8     4    2
    12    19    21    1
    13    19    17    1
    14     4     5   ar
    15     1    21    1
    16     1     6   ar
    17    21    16    1
    18    17    15    1
    19     6     5   ar
    20    16    15    1
    21    15    14    1
    22    14    13    1
