NMI
  -OEChem-02242320033D

 28 29  0     0  0  0  0  0  0999 V2000
    2.8610    2.6480    0.3250 C   0  0  0  0  0  0  0  0  0  0  0  0
    1.8930    1.5810    0.0580 N   0  0  0  0  0  0  0  0  0  0  0  0
    0.5720    1.7740   -0.2420 C   0  0  0  0  0  0  0  0  0  0  0  0
    2.1780    0.2340    0.0670 C   0  0  0  0  0  0  0  0  0  0  0  0
    3.3360   -0.4980    0.3060 C   0  0  0  0  0  0  0  0  0  0  0  0
    3.3030   -1.8740    0.2380 C   0  0  0  0  0  0  0  0  0  0  0  0
    2.1230   -2.5390   -0.0670 C   0  0  0  0  0  0  0  0  0  0  0  0
    0.9730   -1.8400   -0.3040 C   0  0  0  0  0  0  0  0  0  0  0  0
    0.9850   -0.4450   -0.2410 C   0  0  0  0  0  0  0  0  0  0  0  0
   -0.0340    0.5910   -0.4290 C   0  0  0  0  0  0  0  0  0  0  0  0
   -1.4850    0.3700   -0.7690 C   0  0  0  0  0  0  0  0  0  0  0  0
   -2.2760    0.1110    0.5150 C   0  0  0  0  0  0  0  0  0  0  0  0
   -3.7280   -0.1100    0.1740 C   0  0  0  0  0  0  0  0  0  0  0  0
   -4.0920   -0.0650   -0.9770 O   0  0  0  0  0  0  0  0  0  0  0  0
   -4.6160   -0.3560    1.1500 O   0  0  0  0  0  0  0  0  0  0  0  0
    2.8680    2.8740    1.3910 H   0  0  0  0  0  0  0  0  0  0  0  0
    3.8540    2.3230    0.0150 H   0  0  0  0  0  0  0  0  0  0  0  0
    2.5800    3.5400   -0.2340 H   0  0  0  0  0  0  0  0  0  0  0  0
    0.0880    2.7370   -0.3170 H   0  0  0  0  0  0  0  0  0  0  0  0
    4.2600    0.0100    0.5420 H   0  0  0  0  0  0  0  0  0  0  0  0
    4.2030   -2.4410    0.4240 H   0  0  0  0  0  0  0  0  0  0  0  0
    2.1140   -3.6180   -0.1150 H   0  0  0  0  0  0  0  0  0  0  0  0
    0.0590   -2.3640   -0.5400 H   0  0  0  0  0  0  0  0  0  0  0  0
   -1.8800    1.2550   -1.2670 H   0  0  0  0  0  0  0  0  0  0  0  0
   -1.5760   -0.4910   -1.4320 H   0  0  0  0  0  0  0  0  0  0  0  0
   -1.8810   -0.7740    1.0130 H   0  0  0  0  0  0  0  0  0  0  0  0
   -2.1850    0.9720    1.1770 H   0  0  0  0  0  0  0  0  0  0  0  0
   -5.5350   -0.4910    0.8820 H   0  0  0  0  0  0  0  0  0  0  0  0
  7  8  2  0  0  0  0
  6  7  1  0  0  0  0
  8  9  1  0  0  0  0
  5  6  2  0  0  0  0
  4  9  2  0  0  0  0
  9 10  1  0  0  0  0
  4  5  1  0  0  0  0
 11 12  1  0  0  0  0
 12 13  1  0  0  0  0
 10 11  1  0  0  0  0
  2  4  1  0  0  0  0
  3 10  2  0  0  0  0
 13 14  2  0  0  0  0
  2  3  1  0  0  0  0
  1  2  1  0  0  0  0
 13 15  1  0  0  0  0
  1 16  1  0  0  0  0
  1 17  1  0  0  0  0
  1 18  1  0  0  0  0
  3 19  1  0  0  0  0
  5 20  1  0  0  0  0
  6 21  1  0  0  0  0
  7 22  1  0  0  0  0
  8 23  1  0  0  0  0
 11 24  1  0  0  0  0
 11 25  1  0  0  0  0
 12 26  1  0  0  0  0
 12 27  1  0  0  0  0
 15 28  1  0  0  0  0
M  END
> <OPENEYE_ISO_SMILES>
Cn1cc(c2c1cccc2)CCC(=O)O

> <OPENEYE_INCHI>
InChI=1S/C12H13NO2/c1-13-8-9(6-7-12(14)15)10-4-2-3-5-11(10)13/h2-5,8H,6-7H2,1H3,(H,14,15)

> <OPENEYE_INCHIKEY>
VVKVBQDZJLGAFG-UHFFFAOYSA-N

> <FORMULA>
C12H13NO2

$$$$
