@<TRIPOS>MOLECULE
/home/pku/3cl/gett_pdb/7M8Z/7M8Z_mol2/ligand/7M8Z_YTV.pdb
 58 61 0 0 0
SMALL
GASTEIGER

@<TRIPOS>ATOM
      1  C1         8.0800   -0.8580   21.5120 C.ar  401  YTV401      0.2635
      2  C2         8.1660   -0.1800   22.7190 C.ar  401  YTV401      0.0477
      3  C3         7.4330   -0.6490   23.9950 C.ar  401  YTV401     -0.0078
      4  C4         6.7290    0.2900   24.7400 C.ar  401  YTV401     -0.0353
      5  C5         6.0530   -0.0960   25.8920 C.ar  401  YTV401      0.0450
      6  C6         6.0800   -1.4120   26.3190 C.ar  401  YTV401     -0.0016
      7  O1         7.3200   -2.0070   21.4070 O.2   401  YTV401     -0.2667
      8  O2         6.7430   -3.6760   26.0760 O.3   401  YTV401     -0.4918
      9  N3         8.7280   -0.4140   20.4270 N.ar  401  YTV401     -0.2816
     10  C7         6.7700   -2.3620   25.5890 C.ar  401  YTV401      0.1225
     11  C8         7.0880   -4.6840   25.1800 C.3   401  YTV401      0.0922
     12  C9         6.9420   -6.0400   25.8680 C.3   401  YTV401      0.0098
     13  O4         9.9640    3.3670   19.3780 O.2   401  YTV401     -0.2671
     14  O5        13.0460    5.9080   21.8480 O.2   401  YTV401     -0.2467
     15  C10        5.4820   -6.3480   26.2320 C.3   401  YTV401      0.0636
     16  C11        4.5030   -5.7990   25.2020 C.3   401  YTV401     -0.0362
     17  C12        5.1440   -5.7520   27.6000 C.3   401  YTV401     -0.0362
     18  C13        7.4400   -1.9810   24.4160 C.ar  401  YTV401     -0.0120
     19  C14        8.9640    0.9620   22.7670 C.ar  401  YTV401     -0.0395
     20  C15        9.6290    1.4060   21.6290 C.ar  401  YTV401      0.0060
     21  C16       10.5310    2.6500   21.6650 C.ar  401  YTV401      0.0640
     22  C17       10.6690    3.5240   20.5760 C.ar  401  YTV401      0.2617
     23  C18       11.2970    2.9010   22.8020 C.ar  401  YTV401      0.0193
     24  C19       12.2000    4.7950   21.7930 C.ar  401  YTV401      0.3267
     25  C20        9.4940    0.6810   20.4490 C.ar  401  YTV401      0.0212
     26  C21        8.5710   -1.1390   19.1880 C.ar  401  YTV401      0.0675
     27  C22        9.5950   -1.8670   18.6020 C.ar  401  YTV401     -0.0348
     28  C23        9.3390   -2.5240   17.4060 C.ar  401  YTV401     -0.0416
     29  C24        8.0740   -2.4350   16.8250 C.ar  401  YTV401      0.0277
     30  C25        7.3400   -1.0880   18.5550 C.ar  401  YTV401      0.0514
     31  N1        11.4890    4.5770   20.6780 N.ar  401  YTV401     -0.2746
     32  N2        12.1070    3.9710   22.8460 N.ar  401  YTV401     -0.3137
     33  N4         7.1030   -1.7210   17.4050 N.ar  401  YTV401     -0.2612
     34  O3         5.3170   -7.7370   26.2950 O.3   401  YTV401     -0.3890
     35 CL1         5.1660    1.0990   26.8790 Cl    401  YTV401     -0.0834
     36  H1         6.7110    1.1790   24.4670 H     401  YTV401      0.0638
     37  H2         5.6340   -1.6570   27.0970 H     401  YTV401      0.0669
     38  H3         6.5010   -4.6470   24.4090 H     401  YTV401      0.0697
     39  H4         8.0060   -4.5630   24.8940 H     401  YTV401      0.0697
     40  H5         7.4730   -6.0380   26.6800 H     401  YTV401      0.0326
     41  H6         7.2690   -6.7310   25.2700 H     401  YTV401      0.0326
     42  H8         4.8210   -6.0080   24.3090 H     401  YTV401      0.0257
     43  H9         4.4330   -4.8370   25.3030 H     401  YTV401      0.0257
     44  H7         3.6310   -6.2020   25.3370 H     401  YTV401      0.0257
     45  H12        4.9890   -4.7990   27.5080 H     401  YTV401      0.0257
     46  H13        5.8840   -5.9010   28.2090 H     401  YTV401      0.0257
     47  H11        4.3460   -6.1780   27.9510 H     401  YTV401      0.0257
     48  H14        7.8930   -2.6210   23.9150 H     401  YTV401      0.0660
     49  H15        9.0530    1.4300   23.5650 H     401  YTV401      0.0632
     50  H17       11.2470    2.3270   23.5310 H     401  YTV401      0.0816
     51  H19        9.9360    0.9570   19.6780 H     401  YTV401      0.0820
     52  H20       10.4340   -1.9150   19.0000 H     401  YTV401      0.0639
     53  H21       10.0080   -3.0200   16.9930 H     401  YTV401      0.0633
     54  H22        7.9030   -2.8780   16.0250 H     401  YTV401      0.0829
     55  H23        6.6550   -0.5950   18.9450 H     401  YTV401      0.0851
     56  H16       11.5600    5.1230   20.0170 H     401  YTV401      0.1734
     57  H18       12.5700    4.1280   23.5540 H     401  YTV401      0.1698
     58  H10        5.3460   -7.9860   27.1060 H     401  YTV401      0.2101
@<TRIPOS>BOND
     1    54    29    1
     2    29    33   ar
     3    29    28   ar
     4    53    28    1
     5    33    30   ar
     6    28    27   ar
     7    30    55    1
     8    30    26   ar
     9    27    52    1
    10    27    26   ar
    11    26     9    1
    12    13    22    2
    13    51    25    1
    14    56    31    1
    15     9    25   ar
    16     9     1   ar
    17    25    20   ar
    18    22    31   ar
    19    22    21   ar
    20    31    24   ar
    21     7     1    2
    22     1     2   ar
    23    20    21    1
    24    20    19   ar
    25    21    23   ar
    26    24    14    2
    27    24    32   ar
    28     2    19   ar
    29     2     3    1
    30    19    49    1
    31    23    32   ar
    32    23    50    1
    33    32    57    1
    34    48    18    1
    35     3    18   ar
    36     3     4   ar
    37    42    16    1
    38    38    11    1
    39    18    10   ar
    40    36     4    1
    41     4     5   ar
    42    39    11    1
    43    11    12    1
    44    11     8    1
    45    16    43    1
    46    16    44    1
    47    16    15    1
    48    41    12    1
    49    10     8    1
    50    10     6   ar
    51    12    15    1
    52    12    40    1
    53     5     6   ar
    54     5    35    1
    55    15    34    1
    56    15    17    1
    57    34    58    1
    58     6    37    1
    59    45    17    1
    60    17    47    1
    61    17    46    1
