@<TRIPOS>MOLECULE
/home/pku/3cl/gett_pdb/7LBS/7LBS_mol2/ligand/7LBS_XR8.pdb
 34 38 0 0 0
SMALL
GASTEIGER

@<TRIPOS>ATOM
      1  C01       11.7880  -12.1420   29.6730 C.3   401  XR8401      0.0283
      2  C02       11.3000  -11.8950   31.0970 C.3   401  XR8401      0.1178
      3  N03       10.7180  -10.5610   31.2350 N.am  401  XR8401     -0.1989
      4  C04       10.5200   -9.8960   32.5660 C.2   401  XR8401      0.2648
      5  C05        9.9120   -8.4200   32.7510 C.ar  401  XR8401      0.0524
      6  C06       10.9010   -7.4280   32.8790 C.ar  401  XR8401     -0.0173
      7  C07       12.4190   -7.7890   32.7900 C.3   401  XR8401      0.0312
      8  C08       10.5770   -6.1360   33.0720 C.ar  401  XR8401     -0.0028
      9  C09        9.2790   -5.7540   33.1480 C.ar  401  XR8401      0.0158
     10  C10        8.2350   -6.6750   33.0200 C.ar  401  XR8401      0.0655
     11  N11        6.8790   -6.0060   33.1800 N.pl3 401  XR8401     -0.2364
     12  C12        5.6150   -6.3470   32.5880 C.3   401  XR8401      0.1271
     13  C13        5.6010   -6.6800   31.1550 C.3   401  XR8401      0.1117
     14  N14        4.9620   -5.3620   30.9390 N.3   401  XR8401     -0.2143
     15  C15        4.8440   -5.0920   32.3690 C.3   401  XR8401      0.1117
     16  C16        8.5650   -8.0300   32.8320 C.ar  401  XR8401      0.0203
     17  O17       10.9240  -10.4500   33.5530 O.2   401  XR8401     -0.2684
     18  C18       10.2090  -12.8950   31.5720 C.ar  401  XR8401     -0.0025
     19  C19       10.5210  -13.7980   32.5940 C.ar  401  XR8401     -0.0021
     20  C20        9.5390  -14.6220   33.0980 C.ar  401  XR8401      0.0057
     21  C21        9.8600  -15.6470   34.2180 C.ar  401  XR8401      0.0292
     22  C22        8.9920  -16.2550   35.1770 C.ar  401  XR8401      0.0067
     23  C23        9.8080  -17.2640   36.0490 C.ar  401  XR8401      0.0040
     24  C24       11.1810  -17.2800   35.6260 C.ar  401  XR8401      0.0234
     25  C25       12.3620  -18.1680   36.1600 C.3   401  XR8401      0.1057
     26  N26       12.6290  -18.9920   35.3000 N.3   401  XR8401     -0.2685
     27  C27       13.8000  -18.6250   34.2540 C.3   401  XR8401      0.0724
     28  C28       14.3200  -19.7560   33.7810 C.3   401  XR8401      0.0188
     29  C29       13.7020  -20.8750   34.5410 C.3   401  XR8401      0.0188
     30  C30       12.8400  -20.2110   35.6720 C.3   401  XR8401      0.0724
     31  S31       11.3810  -16.1950   34.4040 S.2   401  XR8401     -0.0899
     32  C32        8.2550  -14.6140   32.5220 C.ar  401  XR8401      0.0005
     33  C33        7.9430  -13.7040   31.5160 C.ar  401  XR8401     -0.0003
     34  C34        8.9150  -12.8400   31.0370 C.ar  401  XR8401     -0.0026
@<TRIPOS>BOND
     1     1     2    1
     2    14    13    1
     3    14    15    1
     4    34    33   ar
     5    34    18   ar
     6     2     3    1
     7     2    18    1
     8    13    12    1
     9     3     4   am
    10    33    32   ar
    11    18    19   ar
    12    15    12    1
    13    32    20   ar
    14     4     5    1
    15     4    17    2
    16    12    11    1
    17    19    20   ar
    18     5    16   ar
    19     5     6   ar
    20     7     6    1
    21    16    10   ar
    22     6     8   ar
    23    10     9   ar
    24    10    11    1
    25     8     9   ar
    26    20    21    1
    27    28    27    1
    28    28    29    1
    29    21    31   ar
    30    21    22   ar
    31    27    26    1
    32    31    24   ar
    33    29    30    1
    34    22    23   ar
    35    26    30    1
    36    26    25    1
    37    24    23   ar
    38    24    25    1
