4J8
  -OEChem-02242320003D

 20 20  0     0  0  0  0  0  0999 V2000
   -2.7160   -0.0020    0.0230 C   0  0  0  0  0  0  0  0  0  0  0  0
   -2.0260    1.1960    0.0010 C   0  0  0  0  0  0  0  0  0  0  0  0
    0.0480   -0.0000   -0.0540 C   0  0  0  0  0  0  0  0  0  0  0  0
   -2.0240   -1.1990    0.0070 C   0  0  0  0  0  0  0  0  0  0  0  0
    2.1960   -1.2500   -0.6550 O   0  0  0  0  0  0  0  0  0  0  0  0
    1.8090    0.0010   -0.1030 S   0  0  0  0  0  0  0  0  0  0  0  0
    2.1940    1.2500   -0.6610 O   0  0  0  0  0  0  0  0  0  0  0  0
    2.3430    0.0060    1.4650 N   0  0  0  0  0  0  0  0  0  0  0  0
   -0.6440    1.1960   -0.0370 C   0  0  0  0  0  0  0  0  0  0  0  0
   -0.6420   -1.1980   -0.0320 C   0  0  0  0  0  0  0  0  0  0  0  0
   -4.2220   -0.0030    0.0720 C   0  0  0  0  0  0  0  0  0  0  0  0
   -2.5670    2.1300    0.0140 H   0  0  0  0  0  0  0  0  0  0  0  0
   -2.5630   -2.1350    0.0240 H   0  0  0  0  0  0  0  0  0  0  0  0
    3.1880   -0.4130    1.6900 H   0  0  0  0  0  0  0  0  0  0  0  0
    1.8110    0.4270    2.1580 H   0  0  0  0  0  0  0  0  0  0  0  0
   -0.1050    2.1320   -0.0550 H   0  0  0  0  0  0  0  0  0  0  0  0
   -0.1020   -2.1330   -0.0450 H   0  0  0  0  0  0  0  0  0  0  0  0
   -4.5520    0.0010    1.1100 H   0  0  0  0  0  0  0  0  0  0  0  0
   -4.6030    0.8840   -0.4350 H   0  0  0  0  0  0  0  0  0  0  0  0
   -4.6010   -0.8960   -0.4260 H   0  0  0  0  0  0  0  0  0  0  0  0
  1 11  1  0  0  0  0
  1  4  2  0  0  0  0
  1  2  1  0  0  0  0
  4 10  1  0  0  0  0
  2  9  2  0  0  0  0
  3 10  2  0  0  0  0
  3  9  1  0  0  0  0
  3  6  1  0  0  0  0
  6  8  1  0  0  0  0
  5  6  2  0  0  0  0
  6  7  2  0  0  0  0
  2 12  1  0  0  0  0
  4 13  1  0  0  0  0
  8 14  1  0  0  0  0
  8 15  1  0  0  0  0
  9 16  1  0  0  0  0
 10 17  1  0  0  0  0
 11 18  1  0  0  0  0
 11 19  1  0  0  0  0
 11 20  1  0  0  0  0
M  END
> <OPENEYE_ISO_SMILES>
Cc1ccc(cc1)S(=O)(=O)N

> <OPENEYE_INCHI>
InChI=1S/C7H9NO2S/c1-6-2-4-7(5-3-6)11(8,9)10/h2-5H,1H3,(H2,8,9,10)

> <OPENEYE_INCHIKEY>
LMYRWZFENFIFIT-UHFFFAOYSA-N

> <FORMULA>
C7H9NO2S

$$$$
