W4V
  -OEChem-02242320043D

 22 24  0     0  0  0  0  0  0999 V2000
    2.5850   -0.7860   -0.0440 N   0  0  0  0  0  0  0  0  0  0  0  0
    0.0720   -1.1470    0.0270 C   0  0  0  0  0  0  0  0  0  0  0  0
   -1.1310   -0.4670    0.0650 C   0  0  0  0  0  0  0  0  0  0  0  0
   -2.5550   -0.9730    0.1020 C   0  0  0  0  0  0  0  0  0  0  0  0
   -3.4230    0.2360   -0.3080 C   0  0  0  0  0  0  0  0  0  0  0  0
   -2.5490    1.4360    0.1160 C   0  0  0  0  0  0  0  0  0  0  0  0
   -1.1240    0.9250    0.0720 C   0  0  0  0  0  0  0  0  0  0  0  0
    1.1920    0.9380    0.0070 C   0  0  0  0  0  0  0  0  0  0  0  0
    3.2760    0.3280   -0.0570 C   0  0  0  0  0  0  0  0  0  0  0  0
    0.0990   -2.5230    0.0200 N   0  0  0  0  0  0  0  0  0  0  0  0
    0.0200    1.5810    0.0440 N   0  0  0  0  0  0  0  0  0  0  0  0
    2.4490    1.3660   -0.0270 N   0  0  0  0  0  0  0  0  0  0  0  0
    1.2320   -0.4280   -0.0020 N   0  0  0  0  0  0  0  0  0  0  0  0
   -2.6850   -1.7890   -0.6080 H   0  0  0  0  0  0  0  0  0  0  0  0
   -2.8130   -1.3020    1.1080 H   0  0  0  0  0  0  0  0  0  0  0  0
   -3.5940    0.2430   -1.3840 H   0  0  0  0  0  0  0  0  0  0  0  0
   -4.3700    0.2340    0.2330 H   0  0  0  0  0  0  0  0  0  0  0  0
   -2.6760    2.2610   -0.5850 H   0  0  0  0  0  0  0  0  0  0  0  0
   -2.8080    1.7540    1.1250 H   0  0  0  0  0  0  0  0  0  0  0  0
    4.3540    0.3920   -0.0880 H   0  0  0  0  0  0  0  0  0  0  0  0
   -0.7310   -3.0250    0.0400 H   0  0  0  0  0  0  0  0  0  0  0  0
    0.9480   -2.9910   -0.0070 H   0  0  0  0  0  0  0  0  0  0  0  0
  9 12  1  0  0  0  0
  8 12  2  0  0  0  0
  1  9  2  0  0  0  0
  8 11  1  0  0  0  0
  8 13  1  0  0  0  0
  7 11  2  0  0  0  0
  1 13  1  0  0  0  0
  2 13  1  0  0  0  0
  6  7  1  0  0  0  0
  3  7  1  0  0  0  0
  2  3  2  0  0  0  0
  2 10  1  0  0  0  0
  5  6  1  0  0  0  0
  3  4  1  0  0  0  0
  4  5  1  0  0  0  0
  4 14  1  0  0  0  0
  4 15  1  0  0  0  0
  5 16  1  0  0  0  0
  5 17  1  0  0  0  0
  6 18  1  0  0  0  0
  6 19  1  0  0  0  0
  9 20  1  0  0  0  0
 10 21  1  0  0  0  0
 10 22  1  0  0  0  0
M  END
> <OPENEYE_ISO_SMILES>
c1nc2nc3c(c(n2n1)N)CCC3

> <OPENEYE_INCHI>
InChI=1S/C8H9N5/c9-7-5-2-1-3-6(5)12-8-10-4-11-13(7)8/h4H,1-3,9H2

> <OPENEYE_INCHIKEY>
IMQBKTYGTJTOGV-UHFFFAOYSA-N

> <FORMULA>
C8H9N5

$$$$
