@<TRIPOS>MOLECULE
/home/pku/3cl/gett_pdb/7RM2/7RM2_mol2/ligand/7RM2_5YJ.pdb
 25 27 0 0 0
SMALL
GASTEIGER

@<TRIPOS>ATOM
      1  C1       110.8950   -3.6760  108.5180 C.ar  401  5YJ401      0.1442
      2  C10      105.1730   -2.0390  110.6880 C.ar  401  5YJ401      0.0496
      3  C11      104.2490   -2.6340  109.8170 C.ar  401  5YJ401      0.0256
      4  C12      102.8870   -2.3700  109.9650 C.ar  401  5YJ401      0.0557
      5  C13      102.3520   -1.5280  110.9430 C.ar  401  5YJ401     -0.0006
      6  C14      103.3180   -0.9610  111.7830 C.ar  401  5YJ401      0.0557
      7  C15      104.6720   -1.1900  111.6840 C.ar  401  5YJ401      0.0256
      8  C17      112.1200   -5.7560  108.7440 C.ar  401  5YJ401      0.3715
      9  C2       110.4430   -2.4810  109.3220 C.2   401  5YJ401      0.2672
     10  C20      111.1590   -5.0780  106.5830 C.ar  401  5YJ401      0.2848
     11  C22      110.6540   -3.8760  107.2050 C.ar  401  5YJ401      0.0865
     12  C23      100.8930   -1.2320  111.1140 C.3   401  5YJ401      0.0328
     13  C5       108.8610   -1.5190  111.0220 C.3   401  5YJ401      0.1152
     14  C6       107.4430   -1.0920  110.6820 C.3   401  5YJ401      0.1123
     15  C8       107.0440   -3.2780  109.6900 C.3   401  5YJ401      0.1123
     16  C9       108.4560   -3.7020  110.0570 C.3   401  5YJ401      0.1152
     17  N16      111.6080   -4.5880  109.2490 N.ar  401  5YJ401     -0.1860
     18  N19      111.8640   -5.9350  107.4120 N.ar  401  5YJ401     -0.1517
     19  N4       109.3380   -2.5380  110.0860 N.am  401  5YJ401     -0.2713
     20  N7       106.5550   -2.2610  110.6180 N.pl3 401  5YJ401     -0.3040
     21  O18      112.7460   -6.5610  109.4090 O.2   401  5YJ401     -0.2425
     22  O21      111.0120   -5.3910  105.4200 O.2   401  5YJ401     -0.2650
     23  O3       111.1510   -1.4810  109.2320 O.2   401  5YJ401     -0.2682
     24 CL24      102.7860    0.1230  113.0640 Cl    401  5YJ401     -0.0825
     25 CL25      101.7880   -3.1530  108.8260 Cl    401  5YJ401     -0.0825
@<TRIPOS>BOND
     1    22    10    2
     2    10    11   ar
     3    10    18   ar
     4    11     1   ar
     5    18     8   ar
     6     1    17   ar
     7     1     9    1
     8     8    17   ar
     9     8    21    2
    10    25     4    1
    11    23     9    2
    12     9    19   am
    13    15    16    1
    14    15    20    1
    15     3     4   ar
    16     3     2   ar
    17     4     5   ar
    18    16    19    1
    19    19    13    1
    20    20    14    1
    21    20     2    1
    22    14    13    1
    23     2     7   ar
    24     5    12    1
    25     5     6   ar
    26     7     6   ar
    27     6    24    1
