W0S
  -OEChem-02242320043D

 29 29  0     0  0  0  0  0  0999 V2000
   -3.1130   -0.0980    0.6460 C   0  0  0  0  0  0  0  0  0  0  0  0
   -0.9990    1.1640    0.2050 C   0  0  0  0  0  0  0  0  0  0  0  0
    0.3600    1.2100   -0.0710 C   0  0  0  0  0  0  0  0  0  0  0  0
    0.1870    3.5820   -0.0480 C   0  0  0  0  0  0  0  0  0  0  0  0
    1.0780    0.0280   -0.2110 C   0  0  0  0  0  0  0  0  0  0  0  0
   -3.8740   -0.1150   -0.6100 N   0  0  0  0  0  0  0  0  0  0  0  0
   -1.6380   -0.0540    0.3400 C   0  0  0  0  0  0  0  0  0  0  0  0
   -0.9280   -1.2310    0.1950 C   0  0  0  0  0  0  0  0  0  0  0  0
    0.9880    2.4080   -0.2040 O   0  0  0  0  0  0  0  0  0  0  0  0
    2.4110    0.0680   -0.4820 O   0  0  0  0  0  0  0  0  0  0  0  0
    3.2990    0.0930    0.6380 C   0  0  0  0  0  0  0  0  0  0  0  0
    0.4310   -1.1940   -0.0750 C   0  0  0  0  0  0  0  0  0  0  0  0
    1.1300   -2.3530   -0.2110 O   0  0  0  0  0  0  0  0  0  0  0  0
    0.4000   -3.5720   -0.0580 C   0  0  0  0  0  0  0  0  0  0  0  0
   -3.3900    0.7820    1.2270 H   0  0  0  0  0  0  0  0  0  0  0  0
   -3.3380   -0.9970    1.2190 H   0  0  0  0  0  0  0  0  0  0  0  0
   -1.5570    2.0820    0.3180 H   0  0  0  0  0  0  0  0  0  0  0  0
   -0.6070    3.5820   -0.7950 H   0  0  0  0  0  0  0  0  0  0  0  0
   -0.2530    3.5910    0.9500 H   0  0  0  0  0  0  0  0  0  0  0  0
    0.8100    4.4660   -0.1780 H   0  0  0  0  0  0  0  0  0  0  0  0
   -4.8660   -0.1450   -0.4320 H   0  0  0  0  0  0  0  0  0  0  0  0
   -3.6340    0.6760   -1.1890 H   0  0  0  0  0  0  0  0  0  0  0  0
   -1.4320   -2.1810    0.3020 H   0  0  0  0  0  0  0  0  0  0  0  0
    4.3300    0.1240    0.2830 H   0  0  0  0  0  0  0  0  0  0  0  0
    3.0970    0.9760    1.2430 H   0  0  0  0  0  0  0  0  0  0  0  0
    3.1490   -0.8030    1.2400 H   0  0  0  0  0  0  0  0  0  0  0  0
    1.0740   -4.4180   -0.1910 H   0  0  0  0  0  0  0  0  0  0  0  0
   -0.0380   -3.6100    0.9390 H   0  0  0  0  0  0  0  0  0  0  0  0
   -0.3920   -3.6180   -0.8050 H   0  0  0  0  0  0  0  0  0  0  0  0
  4  9  1  0  0  0  0
  3  9  1  0  0  0  0
  2  3  2  0  0  0  0
  3  5  1  0  0  0  0
  2  7  1  0  0  0  0
 10 11  1  0  0  0  0
  5 10  1  0  0  0  0
  5 12  2  0  0  0  0
  1  7  1  0  0  0  0
  7  8  2  0  0  0  0
  1  6  1  0  0  0  0
  8 12  1  0  0  0  0
 12 13  1  0  0  0  0
 13 14  1  0  0  0  0
  1 15  1  0  0  0  0
  1 16  1  0  0  0  0
  2 17  1  0  0  0  0
  4 18  1  0  0  0  0
  4 19  1  0  0  0  0
  4 20  1  0  0  0  0
  6 21  1  0  0  0  0
  6 22  1  0  0  0  0
  8 23  1  0  0  0  0
 11 24  1  0  0  0  0
 11 25  1  0  0  0  0
 11 26  1  0  0  0  0
 14 27  1  0  0  0  0
 14 28  1  0  0  0  0
 14 29  1  0  0  0  0
M  END
> <OPENEYE_ISO_SMILES>
COc1cc(cc(c1OC)OC)CN

> <OPENEYE_INCHI>
InChI=1S/C10H15NO3/c1-12-8-4-7(6-11)5-9(13-2)10(8)14-3/h4-5H,6,11H2,1-3H3

> <OPENEYE_INCHIKEY>
YUPUSBMJCFBHAP-UHFFFAOYSA-N

> <FORMULA>
C10H15NO3

$$$$
