TFA
  -OEChem-02242320043D

  8  7  0     0  0  0  0  0  0999 V2000
    0.9450    0.1180   -0.0020 C   0  0  0  0  0  0  0  0  0  0  0  0
   -0.5550   -0.0280   -0.0000 C   0  0  0  0  0  0  0  0  0  0  0  0
    1.4450    1.2180   -0.0000 O   0  0  0  0  0  0  0  0  0  0  0  0
   -1.1470    1.2400    0.0040 F   0  0  0  0  0  0  0  0  0  0  0  0
   -0.9570   -0.7260   -1.1430 F   0  0  0  0  0  0  0  0  0  0  0  0
   -0.9540   -0.7320    1.1410 F   0  0  0  0  0  0  0  0  0  0  0  0
    1.7250   -0.9740   -0.0000 O   0  0  0  0  0  0  0  0  0  0  0  0
    2.6810   -0.8310   -0.0010 H   0  0  0  0  0  0  0  0  0  0  0  0
  1  2  1  0  0  0  0
  1  3  2  0  0  0  0
  1  7  1  0  0  0  0
  2  4  1  0  0  0  0
  2  5  1  0  0  0  0
  2  6  1  0  0  0  0
  7  8  1  0  0  0  0
M  END
> <OPENEYE_ISO_SMILES>
C(=O)(C(F)(F)F)O

> <OPENEYE_INCHI>
InChI=1S/C2HF3O2/c3-2(4,5)1(6)7/h(H,6,7)

> <OPENEYE_INCHIKEY>
DTQVDTLACAAQTR-UHFFFAOYSA-N

> <FORMULA>
C2HF3O2

$$$$
