WRM
  -OEChem-02242320043D

 25 26  0     0  0  0  0  0  0999 V2000
   -0.0380    0.8360   -0.5410 N   0  0  0  0  0  0  0  0  0  0  0  0
    1.1780   -1.4050   -0.5820 C   0  0  0  0  0  0  0  0  0  0  0  0
    2.3760   -2.0070   -0.2590 C   0  0  0  0  0  0  0  0  0  0  0  0
    3.4030   -1.2680    0.3100 C   0  0  0  0  0  0  0  0  0  0  0  0
    3.2460    0.0660    0.5600 C   0  0  0  0  0  0  0  0  0  0  0  0
    2.0410    0.6970    0.2400 C   0  0  0  0  0  0  0  0  0  0  0  0
   -1.8640   -0.1080    1.0880 O   0  0  0  0  0  0  0  0  0  0  0  0
   -2.2620   -0.0040   -0.0530 C   0  0  0  0  0  0  0  0  0  0  0  0
   -3.5250   -0.3600   -0.3610 N   0  0  0  0  0  0  0  0  0  0  0  0
   -4.4170   -0.8720    0.6820 C   0  0  0  0  0  0  0  0  0  0  0  0
   -1.3440    0.5230   -1.1260 C   0  0  0  0  0  0  0  0  0  0  0  0
    0.3750    2.0530   -0.0940 C   0  0  0  0  0  0  0  0  0  0  0  0
    1.5900    1.9720    0.3630 N   0  0  0  0  0  0  0  0  0  0  0  0
    1.0000   -0.0510   -0.3360 C   0  0  0  0  0  0  0  0  0  0  0  0
    0.3820   -1.9850   -1.0250 H   0  0  0  0  0  0  0  0  0  0  0  0
    2.5160   -3.0600   -0.4510 H   0  0  0  0  0  0  0  0  0  0  0  0
    4.3360   -1.7520    0.5580 H   0  0  0  0  0  0  0  0  0  0  0  0
    4.0520    0.6320    1.0030 H   0  0  0  0  0  0  0  0  0  0  0  0
   -3.8430   -0.2770   -1.2730 H   0  0  0  0  0  0  0  0  0  0  0  0
   -3.9870   -1.7750    1.1170 H   0  0  0  0  0  0  0  0  0  0  0  0
   -4.5380   -0.1170    1.4590 H   0  0  0  0  0  0  0  0  0  0  0  0
   -5.3890   -1.1050    0.2470 H   0  0  0  0  0  0  0  0  0  0  0  0
   -1.7740    1.4260   -1.5600 H   0  0  0  0  0  0  0  0  0  0  0  0
   -1.2230   -0.2320   -1.9030 H   0  0  0  0  0  0  0  0  0  0  0  0
   -0.2200    2.9540   -0.1160 H   0  0  0  0  0  0  0  0  0  0  0  0
  4  5  2  0  0  0  0
  5  6  1  0  0  0  0
  6 13  1  0  0  0  0
 12 13  2  0  0  0  0
  3  4  1  0  0  0  0
  6 14  2  0  0  0  0
  1 12  1  0  0  0  0
  2  3  2  0  0  0  0
  1 14  1  0  0  0  0
  2 14  1  0  0  0  0
  1 11  1  0  0  0  0
  8 11  1  0  0  0  0
  7  8  2  0  0  0  0
  8  9  1  0  0  0  0
  9 10  1  0  0  0  0
  2 15  1  0  0  0  0
  3 16  1  0  0  0  0
  4 17  1  0  0  0  0
  5 18  1  0  0  0  0
  9 19  1  0  0  0  0
 10 20  1  0  0  0  0
 10 21  1  0  0  0  0
 10 22  1  0  0  0  0
 11 23  1  0  0  0  0
 11 24  1  0  0  0  0
 12 25  1  0  0  0  0
M  END
> <OPENEYE_ISO_SMILES>
CNC(=O)Cn1cnc2c1cccc2

> <OPENEYE_INCHI>
InChI=1S/C10H11N3O/c1-11-10(14)6-13-7-12-8-4-2-3-5-9(8)13/h2-5,7H,6H2,1H3,(H,11,14)

> <OPENEYE_INCHIKEY>
FLYQCADZXXOQSG-UHFFFAOYSA-N

> <FORMULA>
C10H11N3O

$$$$
