@<TRIPOS>MOLECULE
/home/pku/3cl/gett_pdb/7XRY/7XRY_mol2/ligand/7XRY_HUR.pdb
 41 45 0 0 0
SMALL
GASTEIGER

@<TRIPOS>ATOM
      1  C1       -11.7570   -1.4070    1.4630 C.2   401  HUR401      0.0074
      2  C10      -12.2840    4.4730    0.6140 C.2   401  HUR401      0.2829
      3  C11      -11.9180    6.7940    1.3170 C.3   401  HUR401      0.1731
      4  C12      -11.0080    7.4070    0.2530 C.2   401  HUR401      0.2616
      5  C13      -10.6580    9.0660   -1.5850 C.3   401  HUR401      0.1588
      6  C14      -11.2910    8.7860   -2.9350 C.3   401  HUR401      0.0337
      7  C15      -11.2330    7.2840   -3.2250 C.3   401  HUR401      0.0511
      8  C16      -10.0340    6.8650   -3.2780 C.3   401  HUR401      0.0230
      9  C17      -10.0150    5.8530   -4.4590 C.3   401  HUR401      0.0914
     10  C18      -11.8940    6.8630   -4.6790 C.3   401  HUR401      0.2256
     11  C19      -10.2170   10.5190   -1.3060 C.2   401  HUR401      0.2162
     12  C2       -12.5390   -1.3850    0.3470 C.2   401  HUR401     -0.0003
     13  C20       -9.5860   10.9140    0.0090 C.ar  401  HUR401      0.1471
     14  C21       -8.8440   10.8420    2.1530 C.ar  401  HUR401      0.0880
     15  C22       -8.3400   12.0640    1.8560 C.ar  401  HUR401      0.0486
     16  C23       -8.6530   10.3220    3.4120 C.ar  401  HUR401      0.0196
     17  C24       -7.9690   10.9970    4.3880 C.ar  401  HUR401      0.0016
     18  C25       -7.4720   12.2410    4.0790 C.ar  401  HUR401      0.0006
     19  C26       -7.6560   12.7610    2.8150 C.ar  401  HUR401      0.0080
     20  C27      -11.6240    7.3130    2.6780 C.3   401  HUR401      0.0311
     21  C28      -12.6950    7.0430    3.6670 C.3   401  HUR401      0.0022
     22  C29      -12.1990    7.2260    5.0600 C.3   401  HUR401      0.0001
     23  C3       -12.9170   -0.2160   -0.2150 C.2   401  HUR401      0.0186
     24  C30      -13.9070    7.8780    3.3730 C.3   401  HUR401      0.0001
     25  C4       -12.4820    0.9450    0.3690 C.2   401  HUR401      0.0801
     26  C5       -11.7260    0.9400    1.4670 C.2   401  HUR401      0.0280
     27  C6       -11.3250   -0.2600    2.0360 C.3   401  HUR401      0.1611
     28  C7       -12.1440    2.9760    0.7890 C.2   401  HUR401      0.1359
     29  C8       -11.4870    2.2880    1.7640 C.2   401  HUR401      0.0237
     30  C9       -10.2830   -1.3300    3.8940 C.3   401  HUR401      0.1749
     31  N1       -12.7130    2.1570    0.0100 N.2   401  HUR401     -0.2410
     32  N2       -11.7190    5.3870    1.4760 N.am  401  HUR401     -0.1927
     33  N3       -11.4690    8.4610   -0.5970 N.am  401  HUR401     -0.1978
     34  N4       -10.9440    6.5520   -5.4490 N.3   401  HUR401     -0.1893
     35  N5        -9.5250   10.2360    1.1130 N.ar  401  HUR401     -0.2354
     36  O1       -10.5350   -0.2140    3.1470 O.3   401  HUR401     -0.3447
     37  O2       -12.9380    4.8790   -0.2480 O.2   401  HUR401     -0.2667
     38  O3        -9.9610    7.0390    0.1530 O.2   401  HUR401     -0.2715
     39  O4       -10.1740   11.2730   -2.1030 O.2   401  HUR401     -0.2874
     40  O5       -12.6090    7.8520   -5.1350 O.3   401  HUR401     -0.2037
     41  S1        -8.7680   12.3170    0.2710 S.2   401  HUR401     -0.0636
@<TRIPOS>BOND
     1    34    10    1
     2    34     9    1
     3    40    10    1
     4    10     7    1
     5     9     8    1
     6     8     7    1
     7     7     6    1
     8     6     5    1
     9    39    11    2
    10     5    11    1
    11     5    33    1
    12    11    13    1
    13    33     4   am
    14    37     2    2
    15    23    12    1
    16    23    25    2
    17    13    41   ar
    18    13    35   ar
    19    31    25    1
    20    31    28    2
    21    38     4    2
    22     4     3    1
    23    41    15   ar
    24    12     1    2
    25    25    26    1
    26     2    28    1
    27     2    32   am
    28    28    29    1
    29    35    14   ar
    30     3    32    1
    31     3    20    1
    32     1    27    1
    33    26    29    2
    34    26    27    1
    35    15    14   ar
    36    15    19   ar
    37    27    36    1
    38    14    16   ar
    39    20    21    1
    40    19    18   ar
    41    36    30    1
    42    24    21    1
    43    16    17   ar
    44    21    22    1
    45    18    17   ar
