@<TRIPOS>MOLECULE
/home/pku/3cl/gett_pdb/7VH8/7VH8_mol2/ligand/7VH8_4WI.pdb
 35 37 0 0 0
SMALL
GASTEIGER

@<TRIPOS>ATOM
      1  C8       -16.1970   21.1320  -25.3050 C.2   401  4WI401      0.2410
      2  C3       -17.2110   19.8420  -29.6640 C.2   401  4WI401      0.1171
      3  C1       -19.1390   17.7230  -27.3240 C.2   401  4WI401      0.2597
      4  C13      -19.1380   16.5640  -24.5680 C.2   401  4WI401      0.2458
      5  C21      -19.1500   14.2860  -22.0160 C.2   401  4WI401      0.3371
      6  C6       -18.5770   21.4640  -25.7030 C.3   401  4WI401      0.0326
      7  C7       -18.4380   22.0410  -24.5540 C.3   401  4WI401      0.1156
      8  C10      -20.8000   15.3980  -25.8550 C.3   401  4WI401      0.0939
      9  C5       -17.1620   20.5200  -25.9250 C.3   401  4WI401      0.0821
     10  C9       -19.0170   16.2120  -26.9080 C.3   401  4WI401      0.1535
     11  C11      -20.7850   14.5510  -27.2000 C.3   401  4WI401      0.0220
     12  C12      -19.5680   15.1570  -27.9820 C.3   401  4WI401      0.0289
     13  C18      -19.7450   13.6170  -27.8850 C.3   401  4WI401      0.0037
     14  C19      -18.7690   13.0020  -26.8420 C.3   401  4WI401      0.0001
     15  C20      -20.1890   12.8710  -29.1500 C.3   401  4WI401      0.0001
     16  C16      -21.4010   18.3190  -23.7170 C.3   401  4WI401      0.0022
     17  C17      -21.2500   17.2850  -21.3810 C.3   401  4WI401      0.0022
     18  C23      -19.3310   18.6360  -22.2960 C.3   401  4WI401      0.0022
     19  C4       -16.8490   20.4990  -27.4430 C.3   401  4WI401      0.0371
     20  C2       -17.8700   19.7430  -28.3030 C.3   401  4WI401      0.1386
     21  C14      -19.9170   16.3370  -23.2580 C.3   401  4WI401      0.1714
     22  C22      -18.0790   13.6910  -21.1040 C.3   401  4WI401      0.4711
     23  C15      -20.4720   17.6540  -22.6710 C.3   401  4WI401      0.0269
     24  N5       -17.5670   20.7860  -30.4040 N.2   401  4WI401     -0.1496
     25  N2       -16.8740   22.2120  -24.3280 N.am  401  4WI401     -0.2054
     26  N3       -19.6910   16.0150  -25.8110 N.am  401  4WI401     -0.2716
     27  N1       -17.9320   18.3460  -27.8850 N.am  401  4WI401     -0.1996
     28  N4       -18.9850   15.6950  -22.3720 N.am  401  4WI401     -0.1908
     29  O1       -15.0330   20.9650  -25.4120 O.2   401  4WI401     -0.2734
     30  O2       -20.1560   18.3290  -27.1610 O.2   401  4WI401     -0.2715
     31  O3       -18.0940   17.1360  -24.6340 O.2   401  4WI401     -0.2730
     32  O4       -20.0550   13.6240  -22.4130 O.2   401  4WI401     -0.2642
     33  F1       -18.1410   14.2930  -19.8860 F     401  4WI401     -0.1620
     34  F2       -16.8640   13.9500  -21.6860 F     401  4WI401     -0.1620
     35  F3       -18.2870   12.3460  -20.9960 F     401  4WI401     -0.1620
@<TRIPOS>BOND
     1    24     2    2
     2     2    20    1
     3    15    13    1
     4    20    27    1
     5    20    19    1
     6    12    13    1
     7    12    11    1
     8    12    10    1
     9    27     3   am
    10    13    11    1
    11    13    14    1
    12    19     9    1
    13     3    30    2
    14     3    10    1
    15    11     8    1
    16    10    26    1
    17     9     6    1
    18     9     1    1
    19     8    26    1
    20    26     4   am
    21     6     7    1
    22    29     1    2
    23     1    25   am
    24    31     4    2
    25     4    21    1
    26     7    25    1
    27    16    23    1
    28    21    23    1
    29    21    28    1
    30    23    18    1
    31    23    17    1
    32    32     5    2
    33    28     5   am
    34     5    22    1
    35    34    22    1
    36    22    35    1
    37    22    33    1
