GHX
  -OEChem-02242320023D

 61 63  0     1  0  0  0  0  0999 V2000
    6.7050    0.4720   -1.5610 O   0  0  0  0  0  0  0  0  0  0  0  0
    6.1880   -0.6210   -1.4800 C   0  0  0  0  0  0  0  0  0  0  0  0
    6.6220   -1.7270   -2.1090 N   0  0  0  0  0  0  0  0  0  0  0  0
    5.7680   -2.8820   -1.8070 C   0  0  0  0  0  0  0  0  0  0  0  0
    4.9640   -2.4830   -0.5500 C   0  0  0  0  0  0  0  0  0  0  0  0
    4.9640   -0.9420   -0.6500 C   0  0  1  0  0  0  0  0  0  0  0  0
    5.0790   -0.3130    0.7400 C   0  0  0  0  0  0  0  0  0  0  0  0
    3.7820   -0.5480    1.5160 C   0  0  1  0  0  0  0  0  0  0  0  0
    3.9410   -0.0280    2.9460 C   0  0  0  0  0  0  0  0  0  0  0  0
    4.3440    1.3430    2.9120 O   0  0  0  0  0  0  0  0  0  0  0  0
    2.6830    0.1620    0.8570 N   0  0  0  0  0  0  0  0  0  0  0  0
    1.4170   -0.2780    0.9960 C   0  0  0  0  0  0  0  0  0  0  0  0
    1.1870   -1.2620    1.6660 O   0  0  0  0  0  0  0  0  0  0  0  0
    0.2870    0.4530    0.3180 C   0  0  2  0  0  0  0  0  0  0  0  0
    0.2350    1.8960    0.8270 C   0  0  0  0  0  0  0  0  0  0  0  0
   -0.8140    2.6600    0.0620 C   0  0  0  0  0  0  0  0  0  0  0  0
   -0.4750    3.3220   -1.1040 C   0  0  0  0  0  0  0  0  0  0  0  0
   -1.4380    4.0230   -1.8060 C   0  0  0  0  0  0  0  0  0  0  0  0
   -2.7390    4.0630   -1.3420 C   0  0  0  0  0  0  0  0  0  0  0  0
   -3.0790    3.4010   -0.1770 C   0  0  0  0  0  0  0  0  0  0  0  0
   -2.1170    2.6960    0.5220 C   0  0  0  0  0  0  0  0  0  0  0  0
   -0.9800   -0.2170    0.6220 N   0  0  0  0  0  0  0  0  0  0  0  0
   -2.0260   -0.0950   -0.2200 C   0  0  0  0  0  0  0  0  0  0  0  0
   -1.9180    0.5720   -1.2300 O   0  0  0  0  0  0  0  0  0  0  0  0
   -3.1900   -0.7110    0.0590 O   0  0  0  0  0  0  0  0  0  0  0  0
   -4.2730   -0.5350   -0.8920 C   0  0  0  0  0  0  0  0  0  0  0  0
   -5.4870   -1.2920   -0.4160 C   0  0  0  0  0  0  0  0  0  0  0  0
   -5.6710   -2.6090   -0.7930 C   0  0  0  0  0  0  0  0  0  0  0  0
   -6.7840   -3.3030   -0.3570 C   0  0  0  0  0  0  0  0  0  0  0  0
   -7.7130   -2.6800    0.4560 C   0  0  0  0  0  0  0  0  0  0  0  0
   -7.5270   -1.3630    0.8340 C   0  0  0  0  0  0  0  0  0  0  0  0
   -6.4120   -0.6710    0.4010 C   0  0  0  0  0  0  0  0  0  0  0  0
    7.3980   -1.7570   -2.6890 H   0  0  0  0  0  0  0  0  0  0  0  0
    5.0930   -3.0800   -2.6390 H   0  0  0  0  0  0  0  0  0  0  0  0
    6.3810   -3.7600   -1.6020 H   0  0  0  0  0  0  0  0  0  0  0  0
    3.9500   -2.8800   -0.5930 H   0  0  0  0  0  0  0  0  0  0  0  0
    5.4710   -2.8120    0.3580 H   0  0  0  0  0  0  0  0  0  0  0  0
    4.0610   -0.5950   -1.1530 H   0  0  0  0  0  0  0  0  0  0  0  0
    5.9120   -0.7680    1.2760 H   0  0  0  0  0  0  0  0  0  0  0  0
    5.2540    0.7580    0.6410 H   0  0  0  0  0  0  0  0  0  0  0  0
    3.5620   -1.6160    1.5400 H   0  0  0  0  0  0  0  0  0  0  0  0
    2.9910   -0.1140    3.4720 H   0  0  0  0  0  0  0  0  0  0  0  0
    4.6980   -0.6160    3.4640 H   0  0  0  0  0  0  0  0  0  0  0  0
    4.4640    1.7390    3.7850 H   0  0  0  0  0  0  0  0  0  0  0  0
    2.8670    0.9500    0.3210 H   0  0  0  0  0  0  0  0  0  0  0  0
    0.4490    0.4540   -0.7600 H   0  0  0  0  0  0  0  0  0  0  0  0
   -0.0150    1.8980    1.8880 H   0  0  0  0  0  0  0  0  0  0  0  0
    1.2070    2.3670    0.6810 H   0  0  0  0  0  0  0  0  0  0  0  0
    0.5420    3.2910   -1.4660 H   0  0  0  0  0  0  0  0  0  0  0  0
   -1.1720    4.5410   -2.7160 H   0  0  0  0  0  0  0  0  0  0  0  0
   -3.4910    4.6110   -1.8900 H   0  0  0  0  0  0  0  0  0  0  0  0
   -4.0960    3.4320    0.1850 H   0  0  0  0  0  0  0  0  0  0  0  0
   -2.3830    2.1750    1.4300 H   0  0  0  0  0  0  0  0  0  0  0  0
   -1.0660   -0.7490    1.4280 H   0  0  0  0  0  0  0  0  0  0  0  0
   -4.5150    0.5240   -0.9750 H   0  0  0  0  0  0  0  0  0  0  0  0
   -3.9670   -0.9150   -1.8660 H   0  0  0  0  0  0  0  0  0  0  0  0
   -4.9460   -3.0960   -1.4280 H   0  0  0  0  0  0  0  0  0  0  0  0
   -6.9290   -4.3320   -0.6520 H   0  0  0  0  0  0  0  0  0  0  0  0
   -8.5830   -3.2220    0.7960 H   0  0  0  0  0  0  0  0  0  0  0  0
   -8.2530   -0.8770    1.4690 H   0  0  0  0  0  0  0  0  0  0  0  0
   -6.2660    0.3570    0.6990 H   0  0  0  0  0  0  0  0  0  0  0  0
  9 10  1  0  0  0  0
  8  9  1  0  0  0  0
  7  8  1  0  0  0  0
  8 11  1  0  0  0  0
  6  7  1  0  0  0  0
  1  2  2  0  0  0  0
  2  6  1  0  0  0  0
  2  3  1  0  0  0  0
 11 12  1  0  0  0  0
  5  6  1  0  0  0  0
  4  5  1  0  0  0  0
  3  4  1  0  0  0  0
 12 13  2  0  0  0  0
 12 14  1  0  0  0  0
 14 15  1  0  0  0  0
 15 16  1  0  0  0  0
 14 22  1  0  0  0  0
 16 21  2  0  0  0  0
 16 17  1  0  0  0  0
 20 21  1  0  0  0  0
 23 24  2  0  0  0  0
 17 18  2  0  0  0  0
 22 23  1  0  0  0  0
 23 25  1  0  0  0  0
 19 20  2  0  0  0  0
 18 19  1  0  0  0  0
 25 26  1  0  0  0  0
 26 27  1  0  0  0  0
 27 28  2  0  0  0  0
 28 29  1  0  0  0  0
 27 32  1  0  0  0  0
 29 30  2  0  0  0  0
 31 32  2  0  0  0  0
 30 31  1  0  0  0  0
  3 33  1  0  0  0  0
  4 34  1  0  0  0  0
  4 35  1  0  0  0  0
  5 36  1  0  0  0  0
  5 37  1  0  0  0  0
  6 38  1  0  0  0  0
  7 39  1  0  0  0  0
  7 40  1  0  0  0  0
  8 41  1  0  0  0  0
  9 42  1  0  0  0  0
  9 43  1  0  0  0  0
 10 44  1  0  0  0  0
 11 45  1  0  0  0  0
 14 46  1  0  0  0  0
 15 47  1  0  0  0  0
 15 48  1  0  0  0  0
 17 49  1  0  0  0  0
 18 50  1  0  0  0  0
 19 51  1  0  0  0  0
 20 52  1  0  0  0  0
 21 53  1  0  0  0  0
 22 54  1  0  0  0  0
 26 55  1  0  0  0  0
 26 56  1  0  0  0  0
 28 57  1  0  0  0  0
 29 58  1  0  0  0  0
 30 59  1  0  0  0  0
 31 60  1  0  0  0  0
 32 61  1  0  0  0  0
M  END
> <OPENEYE_ISO_SMILES>
c1ccc(cc1)C[C@@H](C(=O)N[C@@H](C[C@@H]2CCNC2=O)CO)NC(=O)OCc3ccccc3

> <OPENEYE_INCHI>
InChI=1S/C24H29N3O5/c28-15-20(14-19-11-12-25-22(19)29)26-23(30)21(13-17-7-3-1-4-8-17)27-24(31)32-16-18-9-5-2-6-10-18/h1-10,19-21,28H,11-16H2,(H,25,29)(H,26,30)(H,27,31)/t19-,20-,21-/m0/s1

> <OPENEYE_INCHIKEY>
SDSQZWABGUFEMG-ACRUOGEOSA-N

> <FORMULA>
C24H29N3O5

$$$$
