@<TRIPOS>MOLECULE
/home/pku/3cl/gett_pdb/7L6T/7L6T_mol2/ligand/7L6T_M7G.pdb
 29 31 0 0 0
SMALL
GASTEIGER

@<TRIPOS>ATOM
      1  PA        86.8220   24.4080   38.5160 P.3     0  M7G0        0.2231
      2  O1A       88.2590   24.1630   38.2270 O.3     0  M7G0       -0.4370
      3  O2A       85.8360   23.3320   38.1780 O.2     0  M7G0       -0.5169
      4  O3A       86.4280   25.7420   37.7320 O.3     0  M7G0       -0.2261
      5  O5'       86.6280   24.8590   40.0360 O.3     0  M7G0       -0.3111
      6  PB        85.0170   26.4500   37.4560 P.3     0  M7G0        0.5373
      7  O1B       84.1790   26.3140   38.6770 O.3     0  M7G0       -0.1143
      8  O2B       85.3410   27.8500   37.0480 O.3     0  M7G0       -0.1143
      9  O3B       84.4440   25.6030   36.2330 O.2     0  M7G0       -0.2221
     10  C5'       86.4690   23.8620   41.0980 C.3     0  M7G0        0.1813
     11  C4'       85.6120   24.4230   42.2080 C.3     0  M7G0        0.1799
     12  O4'       86.2580   25.5860   42.7920 O.3     0  M7G0       -0.3326
     13  C3'       84.2240   24.9380   41.8000 C.3     0  M7G0        0.2158
     14  O3'       83.3000   23.8710   41.6420 O.3     0  M7G0       -0.2175
     15  C2'       83.9110   25.8680   42.9450 C.3     0  M7G0        0.2310
     16  O2'       83.6180   25.1450   44.1220 O.3     0  M7G0       -0.2158
     17  C1'       85.2670   26.5300   43.1740 C.3     0  M7G0        0.2283
     18  N9        85.4460   27.7540   42.3880 N.pl3   0  M7G0       -0.2503
     19  C8        86.2350   27.7850   41.1690 C.3     0  M7G0        0.1917
     20  N7        86.1810   29.1770   40.7910 N.pl3   0  M7G0       -0.2828
     21  CM7       86.7540   29.6740   39.5520 C.3     0  M7G0        0.1140
     22  C5        85.4610   29.9030   41.7450 C.ar    0  M7G0        0.1399
     23  C6        85.2050   31.2740   41.8600 C.ar    0  M7G0        0.2978
     24  O6        85.5380   32.1860   41.1100 O.2     0  M7G0       -0.2636
     25  N1        84.4540   31.5320   43.0090 N.ar    0  M7G0       -0.1712
     26  C2        84.0350   30.6040   43.9220 C.ar    0  M7G0        0.2604
     27  N2        83.3330   31.0580   44.9700 N.pl3   0  M7G0       -0.0859
     28  N3        84.2960   29.3130   43.8120 N.ar    0  M7G0       -0.1946
     29  C4        85.0180   29.0040   42.7220 C.ar    0  M7G0        0.1558
@<TRIPOS>BOND
     1     9     6    2
     2     8     6    1
     3     6     4    1
     4     6     7    1
     5     4     1    1
     6     3     1    2
     7     2     1    1
     8     1     5    1
     9    21    20    1
    10     5    10    1
    11    20    19    1
    12    20    22    1
    13    10    11    1
    14    24    23    2
    15    19    18    1
    16    14    13    1
    17    22    23   ar
    18    22    29   ar
    19    13    11    1
    20    13    15    1
    21    23    25   ar
    22    11    12    1
    23    18    29    1
    24    18    17    1
    25    29    28   ar
    26    12    17    1
    27    15    17    1
    28    15    16    1
    29    25    26   ar
    30    28    26   ar
    31    26    27    1
