@<TRIPOS>MOLECULE
/home/pku/3cl/gett_pdb/7L8J/7L8J_mol2/ligand/7L8J_AG7.pdb
 83 85 0 0 0
SMALL
GASTEIGER

@<TRIPOS>ATOM
      1  C01       19.6050   15.1000   28.4470 C.2   401  AG7401      0.1544
      2  C02       20.4450   15.6510   27.2560 C.3   401  AG7401      0.0191
      3  O03       18.4740   14.7290   28.2870 O.2   401  AG7401     -0.2954
      4  C04       19.6160   15.5120   25.9810 C.3   401  AG7401      0.0462
      5  C05       20.3920   16.1770   24.8510 C.3   401  AG7401     -0.0162
      6  C06       19.6450   15.9010   23.5100 C.ar  401  AG7401     -0.0465
      7  C07       20.3520   15.1670   22.3640 C.ar  401  AG7401     -0.0558
      8  C08       19.6050   14.9180   21.0400 C.ar  401  AG7401     -0.0262
      9  C09       18.1360   15.3780   20.8990 C.ar  401  AG7401      0.1234
     10  C10       17.4230   16.1170   22.0440 C.ar  401  AG7401     -0.0262
     11  C11       18.1950   16.3820   23.3510 C.ar  401  AG7401     -0.0558
     12  N12       18.0280   13.5040   25.3740 N.am  401  AG7401     -0.3119
     13  C13       17.8140   12.0750   25.0710 C.3   401  AG7401      0.0274
     14  C14       16.7810   11.4470   25.9770 C.3   401  AG7401     -0.0231
     15  C15       17.4300   11.0610   27.2430 C.3   401  AG7401      0.0386
     16  C16       16.4790   10.0170   28.0270 C.2   401  AG7401      0.2162
     17  N17       17.2490    9.0260   28.5260 N.am  401  AG7401     -0.3151
     18  O18       15.3070   10.0370   28.1020 O.2   401  AG7401     -0.2755
     19  C19       17.3340   11.9870   23.6060 C.3   401  AG7401     -0.0075
     20  C20       18.5060   12.3080   22.6310 C.3   401  AG7401      0.0498
     21  C21       18.8130   11.1230   21.6590 C.2   401  AG7401      0.3074
     22  O22       20.1580   10.8010   21.3520 O.3   401  AG7401     -0.4649
     23  O23       17.9630   10.4690   21.1460 O.2   401  AG7401     -0.2508
     24  C47       19.3940   14.0110   25.6890 C.2   401  AG7401      0.2171
     25  O48       20.3230   13.2670   25.7180 O.2   401  AG7401     -0.2755
     26  C50       20.9330   10.4380   22.4910 C.3   401  AG7401      0.0896
     27  C53       21.9100   11.5770   22.8490 C.3   401  AG7401     -0.0306
     28  C57       20.2210   15.0100   29.8510 C.3   401  AG7401      0.0841
     29  N58       19.4480   15.8590   30.7460 N.am  401  AG7401     -0.3001
     30  C59       19.5140   17.3170   30.5970 C.2   401  AG7401      0.2663
     31  O60       20.1640   17.7990   29.7470 O.2   401  AG7401     -0.2684
     32  C78       20.1980   13.5570   30.3030 C.3   401  AG7401     -0.0213
     33  C81       20.7460   12.6590   29.2160 C.3   401  AG7401     -0.0606
     34  F1        17.4710   15.1500   19.7270 F     401  AG7401     -0.2055
     35  C82       21.0630   13.5070   31.5700 C.3   401  AG7401     -0.0606
     36  C83       18.7460    9.3900   28.1760 C.3   401  AG7401      0.0123
     37  C84       18.6820   10.2000   27.0690 C.3   401  AG7401     -0.0262
     38  C1        18.6950   18.2420   31.5100 C.ar  401  AG7401      0.1678
     39  C2        17.7290   19.1170   31.0690 C.ar  401  AG7401      0.0125
     40  C3        17.2070   19.7620   32.1570 C.ar  401  AG7401      0.1350
     41  O4        17.8370   19.2930   33.2530 O.2   401  AG7401     -0.3592
     42  N5        18.7710   18.3400   32.8350 N.ar  401  AG7401     -0.0734
     43  C4        16.0980   20.8340   32.1290 C.3   401  AG7401     -0.0037
     44  H2        20.6520   16.5550   27.4040 H     401  AG7401      0.0350
     45  H3        21.2400   15.1580   27.1730 H     401  AG7401      0.0350
     46  H27       18.7760   15.9230   26.0690 H     401  AG7401      0.0401
     47  H28       21.2590   15.8190   24.8100 H     401  AG7401      0.0321
     48  H29       20.4410   17.1020   25.0020 H     401  AG7401      0.0321
     49  H30       21.2270   14.8740   22.4690 H     401  AG7401      0.0621
     50  H31       20.0330   14.4950   20.3320 H     401  AG7401      0.0646
     51  H33       16.5430   16.3980   21.9490 H     401  AG7401      0.0646
     52  H34       17.7800   16.8350   24.0470 H     401  AG7401      0.0621
     53  H49       17.3540   14.0520   25.3680 H     401  AG7401      0.1490
     54  H91       18.6160   11.6060   25.2070 H     401  AG7401      0.0501
     55  H35       16.4190   10.6860   25.5630 H     401  AG7401      0.0290
     56  H36       16.0960   12.0650   26.1490 H     401  AG7401      0.0290
     57  H94       17.6330   11.8530   27.7040 H     401  AG7401      0.0395
     58  H39       16.9740    8.3240   28.9560 H     401  AG7401      0.1487
     59 H191       16.9730   11.1270   23.4230 H     401  AG7401      0.0327
     60  H41       18.2780   13.0640   22.1230 H     401  AG7401      0.0381
     61  H42       19.2770   12.4910   23.1360 H     401  AG7401      0.0381
     62  H51       21.4200    9.6590   22.2990 H     401  AG7401      0.0694
     63  H52       20.3610   10.2790   23.2180 H     401  AG7401      0.0694
     64  H53       21.4700   12.2100   23.3840 H     401  AG7401      0.0262
     65  H54       22.6420   11.2240   23.3190 H     401  AG7401      0.0262
     66  H56       22.2130   11.9890   22.0610 H     401  AG7401      0.0262
     67  H77       21.1130   15.3030   29.8530 H     401  AG7401      0.0580
     68  H61       18.9510   15.5050   31.3640 H     401  AG7401      0.1498
     69  H79       19.3270   13.2530   30.4790 H     401  AG7401      0.0317
     70  H82       20.0850   12.5150   28.5660 H     401  AG7401      0.0233
     71  H84       21.4920   13.0680   28.8190 H     401  AG7401      0.0233
     72  H85       21.0020   11.8360   29.5900 H     401  AG7401      0.0233
     73  H86       20.8020   12.7760   32.0990 H     401  AG7401      0.0233
     74  H87       20.9510   14.3010   32.0580 H     401  AG7401      0.0233
     75  H88       21.9660   13.4120   31.3290 H     401  AG7401      0.0233
     76  H89       19.2300    8.6100   27.9790 H     401  AG7401      0.0462
     77  H90       19.1410    9.8510   28.8920 H     401  AG7401      0.0462
     78  H92       18.6070    9.6770   26.2920 H     401  AG7401      0.0288
     79  H93       19.4450   10.7460   27.0260 H     401  AG7401      0.0288
     80  H8        17.4760   19.2480   30.1850 H     401  AG7401      0.0676
     81  H5        15.4330   20.5810   31.5150 H     401  AG7401      0.0309
     82  H6        15.7190   20.9160   32.9840 H     401  AG7401      0.0309
     83  H7        16.4660   21.6580   31.8690 H     401  AG7401      0.0309
@<TRIPOS>BOND
     1    34     9    1
     2    50     8    1
     3     9     8   ar
     4     9    10   ar
     5     8     7   ar
     6    23    21    2
     7    22    21    1
     8    22    26    1
     9    21    20    1
    10    51    10    1
    11    10    11   ar
    12    66    27    1
    13    60    20    1
    14    62    26    1
    15     7    49    1
    16     7     6   ar
    17    26    27    1
    18    26    63    1
    19    20    61    1
    20    20    19    1
    21    27    65    1
    22    27    64    1
    23    11     6   ar
    24    11    52    1
    25    59    19    1
    26     6     5    1
    27    19    13    1
    28    47     5    1
    29     5    48    1
    30     5     4    1
    31    13    54    1
    32    13    12    1
    33    13    14    1
    34    53    12    1
    35    12    24   am
    36    55    14    1
    37    24    25    2
    38    24     4    1
    39    14    56    1
    40    14    15    1
    41     4    46    1
    42     4     2    1
    43    78    37    1
    44    79    37    1
    45    37    15    1
    46    37    36    1
    47    45     2    1
    48    15    57    1
    49    15    16    1
    50     2    44    1
    51     2     1    1
    52    76    36    1
    53    16    18    2
    54    16    17   am
    55    36    17    1
    56    36    77    1
    57     3     1    2
    58     1    28    1
    59    17    58    1
    60    70    33    1
    61    71    33    1
    62    33    72    1
    63    33    32    1
    64    31    30    2
    65    28    67    1
    66    28    32    1
    67    28    29    1
    68    80    39    1
    69    32    69    1
    70    32    35    1
    71    30    29   am
    72    30    38    1
    73    29    68    1
    74    39    38   ar
    75    39    40   ar
    76    75    35    1
    77    38    42   ar
    78    81    43    1
    79    35    74    1
    80    35    73    1
    81    83    43    1
    82    43    40    1
    83    43    82    1
    84    40    41   ar
    85    42    41   ar
