S1O
  -OEChem-02242320043D

 39 42  0     1  0  0  0  0  0999 V2000
   -2.8740    2.9190    0.4920 C   0  0  0  0  0  0  0  0  0  0  0  0
   -3.0210    1.4190    0.4780 C   0  0  0  0  0  0  0  0  0  0  0  0
   -2.0560    0.5130    0.1990 C   0  0  0  0  0  0  0  0  0  0  0  0
   -1.9770   -1.9930    0.0920 C   0  0  1  0  0  0  0  0  0  0  0  0
   -1.9860   -2.3320   -1.4020 C   0  0  0  0  0  0  0  0  0  0  0  0
   -1.1880   -1.2680   -2.1620 C   0  0  0  0  0  0  0  0  0  0  0  0
    0.2360   -1.2100   -1.6050 C   0  0  0  0  0  0  0  0  0  0  0  0
    1.4630   -0.6940    0.3330 C   0  0  0  0  0  0  0  0  0  0  0  0
    2.3300    0.2510   -0.2360 C   0  0  0  0  0  0  0  0  0  0  0  0
    2.2440    1.2030   -1.3420 C   0  0  0  0  0  0  0  0  0  0  0  0
    3.4240    1.8420   -1.3970 C   0  0  0  0  0  0  0  0  0  0  0  0
    3.6180    0.4010    0.3120 C   0  0  0  0  0  0  0  0  0  0  0  0
    3.1140   -1.2340    1.8510 C   0  0  0  0  0  0  0  0  0  0  0  0
   -0.5300   -1.9140    0.5840 C   0  0  0  0  0  0  0  0  0  0  0  0
   -2.6380   -0.7030    0.3060 N   0  0  0  0  0  0  0  0  0  0  0  0
    0.1900   -0.8830   -0.1740 N   0  0  2  0  0  0  0  0  0  0  0  0
    4.2540    1.3720   -0.4120 N   0  0  0  0  0  0  0  0  0  0  0  0
    3.9610   -0.3600    1.3500 N   0  0  0  0  0  0  0  0  0  0  0  0
    1.8980   -1.4080    1.3670 N   0  0  0  0  0  0  0  0  0  0  0  0
   -3.8730   -0.5330    0.6280 N   0  0  0  0  0  0  0  0  0  0  0  0
   -4.1310    0.7220    0.7440 N   0  0  0  0  0  0  0  0  0  0  0  0
   -1.5300    3.2690    0.1530 O   0  0  0  0  0  0  0  0  0  0  0  0
   -3.5580    3.3590   -0.2340 H   0  0  0  0  0  0  0  0  0  0  0  0
   -3.1070    3.2980    1.4870 H   0  0  0  0  0  0  0  0  0  0  0  0
   -1.0270    0.7190   -0.0580 H   0  0  0  0  0  0  0  0  0  0  0  0
   -2.5070   -2.7700    0.6430 H   0  0  0  0  0  0  0  0  0  0  0  0
   -1.5290   -3.3090   -1.5560 H   0  0  0  0  0  0  0  0  0  0  0  0
   -3.0130   -2.3460   -1.7660 H   0  0  0  0  0  0  0  0  0  0  0  0
   -1.1540   -1.5270   -3.2200 H   0  0  0  0  0  0  0  0  0  0  0  0
   -1.6670   -0.2970   -2.0390 H   0  0  0  0  0  0  0  0  0  0  0  0
    0.7190   -2.1780   -1.7400 H   0  0  0  0  0  0  0  0  0  0  0  0
    0.8020   -0.4440   -2.1340 H   0  0  0  0  0  0  0  0  0  0  0  0
    1.3950    1.3610   -1.9900 H   0  0  0  0  0  0  0  0  0  0  0  0
    3.6800    2.6120   -2.1100 H   0  0  0  0  0  0  0  0  0  0  0  0
    3.4280   -1.8340    2.6930 H   0  0  0  0  0  0  0  0  0  0  0  0
   -0.5210   -1.6590    1.6440 H   0  0  0  0  0  0  0  0  0  0  0  0
   -0.0440   -2.8780    0.4380 H   0  0  0  0  0  0  0  0  0  0  0  0
    5.1590    1.6810   -0.2530 H   0  0  0  0  0  0  0  0  0  0  0  0
   -1.3620    4.2210    0.1420 H   0  0  0  0  0  0  0  0  0  0  0  0
  1  2  1  0  0  0  0
  1 22  1  0  0  0  0
  2  3  2  0  0  0  0
  3 15  1  0  0  0  0
  2 21  1  0  0  0  0
  4  5  1  0  0  0  0
  5  6  1  0  0  0  0
  4 15  1  0  0  0  0
 15 20  1  0  0  0  0
  4 14  1  0  0  0  0
 20 21  2  0  0  0  0
  6  7  1  0  0  0  0
 14 16  1  0  0  0  0
  7 16  1  0  0  0  0
  8 16  1  0  0  0  0
  8  9  2  0  0  0  0
  8 19  1  0  0  0  0
  9 10  1  0  0  0  0
 10 11  2  0  0  0  0
  9 12  1  0  0  0  0
 13 19  2  0  0  0  0
 11 17  1  0  0  0  0
 12 17  1  0  0  0  0
 12 18  2  0  0  0  0
 13 18  1  0  0  0  0
  1 23  1  0  0  0  0
  1 24  1  0  0  0  0
  3 25  1  0  0  0  0
  4 26  1  0  0  0  0
  5 27  1  0  0  0  0
  5 28  1  0  0  0  0
  6 29  1  0  0  0  0
  6 30  1  0  0  0  0
  7 31  1  0  0  0  0
  7 32  1  0  0  0  0
 10 33  1  0  0  0  0
 11 34  1  0  0  0  0
 13 35  1  0  0  0  0
 14 36  1  0  0  0  0
 14 37  1  0  0  0  0
 17 38  1  0  0  0  0
 22 39  1  0  0  0  0
M  END
> <OPENEYE_ISO_SMILES>
c1c[nH]c2c1c(ncn2)[N@]3CCC[C@@H](C3)n4cc(nn4)CO

> <OPENEYE_INCHI>
InChI=1S/C14H17N7O/c22-8-10-6-21(19-18-10)11-2-1-5-20(7-11)14-12-3-4-15-13(12)16-9-17-14/h3-4,6,9,11,22H,1-2,5,7-8H2,(H,15,16,17)/t11-/m0/s1

> <OPENEYE_INCHIKEY>
ASNUGOSBOWLSJV-NSHDSACASA-N

> <FORMULA>
C14H17N7O

$$$$
