WX4
  -OEChem-02242320043D

 39 42  0     1  0  0  0  0  0999 V2000
   -0.0070    2.7040    0.4210 C   0  0  0  0  0  0  0  0  0  0  0  0
   -1.0020    0.5870   -0.3080 N   0  0  2  0  0  0  0  0  0  0  0  0
    0.3120   -0.0660   -0.3650 C   0  0  0  0  0  0  0  0  0  0  0  0
   -5.3630    1.0690    0.0450 C   0  0  0  0  0  0  0  0  0  0  0  0
   -4.0560    1.3390   -0.1020 C   0  0  0  0  0  0  0  0  0  0  0  0
   -3.3510    0.0590   -0.0400 C   0  0  0  0  0  0  0  0  0  0  0  0
    5.8020   -0.9710    0.6280 C   0  0  0  0  0  0  0  0  0  0  0  0
    4.6050   -0.5150   -0.1650 C   0  0  0  0  0  0  0  0  0  0  0  0
    3.5010    0.1020    0.3170 C   0  0  0  0  0  0  0  0  0  0  0  0
    1.3840    0.9700   -0.7140 C   0  0  1  0  0  0  0  0  0  0  0  0
    1.3860    2.0730    0.3490 C   0  0  0  0  0  0  0  0  0  0  0  0
   -1.0380    1.6180    0.7370 C   0  0  0  0  0  0  0  0  0  0  0  0
   -2.0100   -0.3420   -0.1240 C   0  0  0  0  0  0  0  0  0  0  0  0
   -2.6900   -2.5290    0.1540 C   0  0  0  0  0  0  0  0  0  0  0  0
   -4.3400   -0.9250    0.1470 C   0  0  0  0  0  0  0  0  0  0  0  0
    2.6970    0.3220   -0.7490 N   0  0  0  0  0  0  0  0  0  0  0  0
    3.2850   -0.1350   -1.7990 N   0  0  0  0  0  0  0  0  0  0  0  0
    4.4270   -0.6360   -1.4860 N   0  0  0  0  0  0  0  0  0  0  0  0
   -1.7310   -1.6380   -0.0220 N   0  0  0  0  0  0  0  0  0  0  0  0
   -3.9610   -2.1980    0.2390 N   0  0  0  0  0  0  0  0  0  0  0  0
   -5.5460   -0.2810    0.1950 N   0  0  0  0  0  0  0  0  0  0  0  0
    5.6060   -0.6590    2.0090 O   0  0  0  0  0  0  0  0  0  0  0  0
   -0.0240    3.4610    1.2050 H   0  0  0  0  0  0  0  0  0  0  0  0
   -0.2480    3.1660   -0.5360 H   0  0  0  0  0  0  0  0  0  0  0  0
    0.5390   -0.5100    0.6040 H   0  0  0  0  0  0  0  0  0  0  0  0
    0.2990   -0.8450   -1.1270 H   0  0  0  0  0  0  0  0  0  0  0  0
   -6.1520    1.8070    0.0490 H   0  0  0  0  0  0  0  0  0  0  0  0
   -3.6100    2.3130   -0.2390 H   0  0  0  0  0  0  0  0  0  0  0  0
    5.9260   -2.0480    0.5130 H   0  0  0  0  0  0  0  0  0  0  0  0
    6.6950   -0.4630    0.2640 H   0  0  0  0  0  0  0  0  0  0  0  0
    3.3030    0.3650    1.3450 H   0  0  0  0  0  0  0  0  0  0  0  0
    1.1650    1.4050   -1.6890 H   0  0  0  0  0  0  0  0  0  0  0  0
    2.1180    2.8350    0.0810 H   0  0  0  0  0  0  0  0  0  0  0  0
    1.6420    1.6440    1.3180 H   0  0  0  0  0  0  0  0  0  0  0  0
   -0.8050    1.1660    1.7010 H   0  0  0  0  0  0  0  0  0  0  0  0
   -2.0330    2.0620    0.7750 H   0  0  0  0  0  0  0  0  0  0  0  0
   -2.4210   -3.5720    0.2320 H   0  0  0  0  0  0  0  0  0  0  0  0
   -6.4040   -0.7160    0.3200 H   0  0  0  0  0  0  0  0  0  0  0  0
    6.3390   -0.9250    2.5810 H   0  0  0  0  0  0  0  0  0  0  0  0
  7 22  1  0  0  0  0
  7  8  1  0  0  0  0
  8 18  1  0  0  0  0
  8  9  2  0  0  0  0
 17 18  2  0  0  0  0
  9 16  1  0  0  0  0
 16 17  1  0  0  0  0
 10 16  1  0  0  0  0
 10 11  1  0  0  0  0
  3 10  1  0  0  0  0
  1 11  1  0  0  0  0
  1 12  1  0  0  0  0
  2  3  1  0  0  0  0
  2 12  1  0  0  0  0
  2 13  1  0  0  0  0
  6 13  2  0  0  0  0
 13 19  1  0  0  0  0
  5  6  1  0  0  0  0
  4  5  2  0  0  0  0
  6 15  1  0  0  0  0
 14 19  2  0  0  0  0
  4 21  1  0  0  0  0
 15 21  1  0  0  0  0
 15 20  2  0  0  0  0
 14 20  1  0  0  0  0
  1 23  1  0  0  0  0
  1 24  1  0  0  0  0
  3 25  1  0  0  0  0
  3 26  1  0  0  0  0
  4 27  1  0  0  0  0
  5 28  1  0  0  0  0
  7 29  1  0  0  0  0
  7 30  1  0  0  0  0
  9 31  1  0  0  0  0
 10 32  1  0  0  0  0
 11 33  1  0  0  0  0
 11 34  1  0  0  0  0
 12 35  1  0  0  0  0
 12 36  1  0  0  0  0
 14 37  1  0  0  0  0
 21 38  1  0  0  0  0
 22 39  1  0  0  0  0
M  END
> <OPENEYE_ISO_SMILES>
c1c[nH]c2c1c(ncn2)[N@]3CCC[C@H](C3)n4cc(nn4)CO

> <OPENEYE_INCHI>
InChI=1S/C14H17N7O/c22-8-10-6-21(19-18-10)11-2-1-5-20(7-11)14-12-3-4-15-13(12)16-9-17-14/h3-4,6,9,11,22H,1-2,5,7-8H2,(H,15,16,17)/t11-/m1/s1

> <OPENEYE_INCHIKEY>
ASNUGOSBOWLSJV-LLVKDONJSA-N

> <FORMULA>
C14H17N7O

$$$$
