WWS
  -OEChem-02242320043D

 27 29  0     0  0  0  0  0  0999 V2000
   -1.1590   -0.1180   -1.1340 C   0  0  0  0  0  0  0  0  0  0  0  0
   -3.4930    0.0130    0.2570 C   0  0  0  0  0  0  0  0  0  0  0  0
   -2.8330    1.1940   -0.0500 C   0  0  0  0  0  0  0  0  0  0  0  0
    1.6040   -1.7000   -0.6750 C   0  0  0  0  0  0  0  0  0  0  0  0
    3.3020   -0.9920    0.7260 C   0  0  0  0  0  0  0  0  0  0  0  0
    2.9850    0.3500    0.4510 C   0  0  0  0  0  0  0  0  0  0  0  0
    2.7620    2.4820    0.2450 C   0  0  0  0  0  0  0  0  0  0  0  0
    1.9180    0.6190   -0.4360 C   0  0  0  0  0  0  0  0  0  0  0  0
    0.1290   -0.2090   -1.9110 C   0  0  0  0  0  0  0  0  0  0  0  0
   -2.9430   -1.1910   -0.1470 C   0  0  0  0  0  0  0  0  0  0  0  0
   -1.6450    1.1200   -0.7600 C   0  0  0  0  0  0  0  0  0  0  0  0
    4.3300   -1.3010    1.5810 N   0  0  0  0  0  0  0  0  0  0  0  0
    3.4660    1.5420    0.8390 N   0  0  0  0  0  0  0  0  0  0  0  0
    1.8260    1.9370   -0.5240 N   0  0  0  0  0  0  0  0  0  0  0  0
    1.2410   -0.4450   -0.9870 N   0  0  0  0  0  0  0  0  0  0  0  0
   -1.8120   -1.2210   -0.8250 N   0  0  0  0  0  0  0  0  0  0  0  0
    2.5890   -1.9610    0.1450 N   0  0  0  0  0  0  0  0  0  0  0  0
   -4.9820    0.0430    1.1500 Cl  0  0  0  0  0  0  0  0  0  0  0  0
   -3.2390    2.1480    0.2520 H   0  0  0  0  0  0  0  0  0  0  0  0
    1.0590   -2.5230   -1.1120 H   0  0  0  0  0  0  0  0  0  0  0  0
    2.9200    3.5430    0.3670 H   0  0  0  0  0  0  0  0  0  0  0  0
    0.0670   -1.0320   -2.6220 H   0  0  0  0  0  0  0  0  0  0  0  0
    0.2960    0.7240   -2.4490 H   0  0  0  0  0  0  0  0  0  0  0  0
   -3.4490   -2.1150    0.0890 H   0  0  0  0  0  0  0  0  0  0  0  0
   -1.1040    2.0200   -1.0160 H   0  0  0  0  0  0  0  0  0  0  0  0
    4.8430   -0.5930    2.0000 H   0  0  0  0  0  0  0  0  0  0  0  0
    4.5430   -2.2290    1.7670 H   0  0  0  0  0  0  0  0  0  0  0  0
  2 18  1  0  0  0  0
  2  3  2  0  0  0  0
  3 11  1  0  0  0  0
  2 10  1  0  0  0  0
  1 11  2  0  0  0  0
 10 16  2  0  0  0  0
  1 16  1  0  0  0  0
  1  9  1  0  0  0  0
  9 15  1  0  0  0  0
  4 15  1  0  0  0  0
  4 17  2  0  0  0  0
  8 15  1  0  0  0  0
  5 17  1  0  0  0  0
  8 14  2  0  0  0  0
  6  8  1  0  0  0  0
  7 14  1  0  0  0  0
  5  6  2  0  0  0  0
  5 12  1  0  0  0  0
  6 13  1  0  0  0  0
  7 13  2  0  0  0  0
  3 19  1  0  0  0  0
  4 20  1  0  0  0  0
  7 21  1  0  0  0  0
  9 22  1  0  0  0  0
  9 23  1  0  0  0  0
 10 24  1  0  0  0  0
 11 25  1  0  0  0  0
 12 26  1  0  0  0  0
 12 27  1  0  0  0  0
M  END
> <OPENEYE_ISO_SMILES>
c1cc(ncc1Cl)Cn2cnc(c-3ncnc23)N

> <OPENEYE_INCHI>
InChI=1S/C11H9ClN6/c12-7-1-2-8(14-3-7)4-18-6-17-10(13)9-11(18)16-5-15-9/h1-3,5-6H,4,13H2

> <OPENEYE_INCHIKEY>
RILIKBFMMNNYNO-UHFFFAOYSA-N

> <FORMULA>
C11H9ClN6

$$$$
