T8D
  -OEChem-02242320043D

 31 32  0     0  0  0  0  0  0999 V2000
   -1.0660    0.4550    0.0470 N   0  0  0  0  0  0  0  0  0  0  0  0
   -1.7280    0.4600   -1.2650 C   0  0  0  0  0  0  0  0  0  0  0  0
   -3.2330    0.6660   -1.0540 C   0  0  0  0  0  0  0  0  0  0  0  0
    1.6740    0.6700   -0.1000 C   0  0  0  0  0  0  0  0  0  0  0  0
    2.2360    0.7230   -1.3080 C   0  0  0  0  0  0  0  0  0  0  0  0
    3.4060   -0.0060   -1.4390 C   0  0  0  0  0  0  0  0  0  0  0  0
   -3.6980   -0.2790   -0.0290 N   0  0  0  0  0  0  0  0  0  0  0  0
   -5.1030   -2.1680    0.7290 C   0  0  0  0  0  0  0  0  0  0  0  0
   -5.3120   -1.0520   -1.3400 O   0  0  0  0  0  0  0  0  0  0  0  0
   -4.7130   -1.1270   -0.2890 C   0  0  0  0  0  0  0  0  0  0  0  0
   -3.0360   -0.2830    1.2830 C   0  0  0  0  0  0  0  0  0  0  0  0
   -1.5310   -0.4900    1.0720 C   0  0  0  0  0  0  0  0  0  0  0  0
    3.7930   -0.6500   -0.3360 C   0  0  0  0  0  0  0  0  0  0  0  0
    0.0360    2.5860   -0.5310 O   0  0  0  0  0  0  0  0  0  0  0  0
    0.2340    1.6440    1.7760 O   0  0  0  0  0  0  0  0  0  0  0  0
    0.1860    1.4920    0.3640 S   0  0  0  0  0  0  0  0  0  0  0  0
    2.6390   -0.3500    0.9580 S   0  0  0  0  0  0  0  0  0  0  0  0
    5.2140   -1.6380   -0.2000 Cl  0  0  0  0  0  0  0  0  0  0  0  0
   -1.3290    1.2710   -1.8730 H   0  0  0  0  0  0  0  0  0  0  0  0
   -1.5560   -0.4940   -1.7640 H   0  0  0  0  0  0  0  0  0  0  0  0
   -3.4190    1.6880   -0.7210 H   0  0  0  0  0  0  0  0  0  0  0  0
   -3.7620    0.4820   -1.9890 H   0  0  0  0  0  0  0  0  0  0  0  0
    1.8110    1.2900   -2.1230 H   0  0  0  0  0  0  0  0  0  0  0  0
    3.9630   -0.0500   -2.3630 H   0  0  0  0  0  0  0  0  0  0  0  0
   -4.5220   -2.0230    1.6390 H   0  0  0  0  0  0  0  0  0  0  0  0
   -6.1650   -2.0740    0.9560 H   0  0  0  0  0  0  0  0  0  0  0  0
   -4.9050   -3.1620    0.3260 H   0  0  0  0  0  0  0  0  0  0  0  0
   -3.2080    0.6700    1.7820 H   0  0  0  0  0  0  0  0  0  0  0  0
   -3.4380   -1.0930    1.8920 H   0  0  0  0  0  0  0  0  0  0  0  0
   -1.3450   -1.5110    0.7390 H   0  0  0  0  0  0  0  0  0  0  0  0
   -1.0020   -0.3060    2.0070 H   0  0  0  0  0  0  0  0  0  0  0  0
  8 10  1  0  0  0  0
  9 10  2  0  0  0  0
  7 10  1  0  0  0  0
  7 11  1  0  0  0  0
 11 12  1  0  0  0  0
  1 12  1  0  0  0  0
  1  2  1  0  0  0  0
  2  3  1  0  0  0  0
  3  7  1  0  0  0  0
  1 16  1  0  0  0  0
 14 16  2  0  0  0  0
 15 16  2  0  0  0  0
  4 16  1  0  0  0  0
  4  5  2  0  0  0  0
  5  6  1  0  0  0  0
  6 13  2  0  0  0  0
 13 18  1  0  0  0  0
 13 17  1  0  0  0  0
  4 17  1  0  0  0  0
  2 19  1  0  0  0  0
  2 20  1  0  0  0  0
  3 21  1  0  0  0  0
  3 22  1  0  0  0  0
  5 23  1  0  0  0  0
  6 24  1  0  0  0  0
  8 25  1  0  0  0  0
  8 26  1  0  0  0  0
  8 27  1  0  0  0  0
 11 28  1  0  0  0  0
 11 29  1  0  0  0  0
 12 30  1  0  0  0  0
 12 31  1  0  0  0  0
M  END
> <OPENEYE_ISO_SMILES>
CC(=O)N1CCN(CC1)S(=O)(=O)c2ccc(s2)Cl

> <OPENEYE_INCHI>
InChI=1S/C10H13ClN2O3S2/c1-8(14)12-4-6-13(7-5-12)18(15,16)10-3-2-9(11)17-10/h2-3H,4-7H2,1H3

> <OPENEYE_INCHIKEY>
LFGOPTUHDODAIB-UHFFFAOYSA-N

> <FORMULA>
C10H13ClN2O3S2

$$$$
