@<TRIPOS>MOLECULE
/home/pku/3cl/gett_pdb/5RTR/5RTR_mol2/ligand/5RTR_SHA.pdb
 18 18 0 0 0
SMALL
GASTEIGER

@<TRIPOS>ATOM
      1  C1       -49.4710  -29.0310    5.4180 C.ar  201  SHA201      0.0800
      2  C2       -49.1620  -28.9450    6.7670 C.ar  201  SHA201     -0.0460
      3  C3       -47.8190  -28.7590    7.1360 C.ar  201  SHA201     -0.0608
      4  C4       -46.8120  -28.6870    6.1310 C.ar  201  SHA201     -0.0583
      5  C5       -47.1260  -28.7800    4.8450 C.ar  201  SHA201     -0.0194
      6  C6       -48.4650  -28.9550    4.4750 C.ar  201  SHA201      0.1290
      7  O6       -48.8220  -29.0600    3.0760 O.3   201  SHA201     -0.5060
      8  C7       -50.8680  -29.2500    4.8090 C.2   201  SHA201      0.2700
      9  O7       -51.1760  -29.1930    3.6760 O.2   201  SHA201     -0.2680
     10  N8       -51.9550  -29.5730    5.5960 N.am  201  SHA201     -0.1934
     11  O9       -51.7590  -29.6430    6.8350 O.3   201  SHA201     -0.2949
     12  H2       -49.8230  -28.9970    7.4180 H     201  SHA201      0.0626
     13  H3       -47.5880  -28.6950    8.0350 H     201  SHA201      0.0618
     14  H4       -45.9240  -28.5610    6.3760 H     201  SHA201      0.0619
     15  H5       -46.4640  -28.7230    4.1940 H     201  SHA201      0.0654
     16  HO6      -48.3020  -28.5740    2.6120 H     201  SHA201      0.2922
     17  HN8      -52.7370  -29.6870    5.2560 H     201  SHA201      0.1825
     18  HO9      -52.3680  -29.2130    7.2430 H     201  SHA201      0.2414
@<TRIPOS>BOND
     1    16     7    1
     2     7     6    1
     3     9     8    2
     4    15     5    1
     5     6     5   ar
     6     6     1   ar
     7     8     1    1
     8     8    10   am
     9     5     4   ar
    10    17    10    1
    11     1     2   ar
    12    10    11    1
    13     4    14    1
    14     4     3   ar
    15     2     3   ar
    16     2    12    1
    17    11    18    1
    18     3    13    1
