OW1
  -OEChem-02242320033D

 70 72  0     1  0  0  0  0  0999 V2000
    4.4930    2.9170    1.1680 C   0  0  0  0  0  0  0  0  0  0  0  0
    4.9940    1.7290    1.4000 C   0  0  0  0  0  0  0  0  0  0  0  0
    4.3520    0.5090    0.7930 C   0  0  2  0  0  0  0  0  0  0  0  0
    5.3980   -0.2760   -0.0010 C   0  0  0  0  0  0  0  0  0  0  0  0
    4.7780   -1.5780   -0.5130 C   0  0  2  0  0  0  0  0  0  0  0  0
    4.4050   -2.5020    0.6690 C   0  0  0  0  0  0  0  0  0  0  0  0
    4.7310   -3.8980    0.0930 C   0  0  0  0  0  0  0  0  0  0  0  0
    5.7510   -3.6680   -0.9370 N   0  0  0  0  0  0  0  0  0  0  0  0
    5.7950   -2.3750   -1.3000 C   0  0  0  0  0  0  0  0  0  0  0  0
    6.5420   -1.9140   -2.1380 O   0  0  0  0  0  0  0  0  0  0  0  0
    3.2680    0.9220   -0.1020 N   0  0  0  0  0  0  0  0  0  0  0  0
    2.0190    1.0780    0.3790 C   0  0  0  0  0  0  0  0  0  0  0  0
    1.7920    0.8780    1.5540 O   0  0  0  0  0  0  0  0  0  0  0  0
    0.9050    1.5030   -0.5420 C   0  0  2  0  0  0  0  0  0  0  0  0
    0.8990    3.0380   -0.7080 C   0  0  2  0  0  0  0  0  0  0  0  0
   -0.1180    3.5480    0.3340 C   0  0  2  0  0  0  0  0  0  0  0  0
   -0.6370    2.2770    1.0390 C   0  0  0  0  0  0  0  0  0  0  0  0
   -0.4120    1.1880    0.0610 N   0  0  0  0  0  0  0  0  0  0  0  0
   -1.2200    0.1460   -0.2190 C   0  0  0  0  0  0  0  0  0  0  0  0
   -0.9280   -0.6280   -1.1050 O   0  0  0  0  0  0  0  0  0  0  0  0
   -2.4880   -0.0560    0.5710 C   0  0  1  0  0  0  0  0  0  0  0  0
   -3.4580   -0.7940   -0.2430 N   0  0  0  0  0  0  0  0  0  0  0  0
   -4.7770   -0.6690    0.0030 C   0  0  0  0  0  0  0  0  0  0  0  0
   -5.1610    0.0530    0.8990 O   0  0  0  0  0  0  0  0  0  0  0  0
   -5.7740   -1.4280   -0.8340 C   0  0  0  0  0  0  0  0  0  0  0  0
   -5.6440   -1.0480   -2.1740 F   0  0  0  0  0  0  0  0  0  0  0  0
   -5.5360   -2.8010   -0.7130 F   0  0  0  0  0  0  0  0  0  0  0  0
   -7.0700   -1.1390   -0.3910 F   0  0  0  0  0  0  0  0  0  0  0  0
   -2.1770   -0.8530    1.8400 C   0  0  0  0  0  0  0  0  0  0  0  0
   -1.4650   -2.1540    1.4630 C   0  0  0  0  0  0  0  0  0  0  0  0
   -1.2730   -0.0230    2.7540 C   0  0  0  0  0  0  0  0  0  0  0  0
   -3.4810   -1.1780    2.5700 C   0  0  0  0  0  0  0  0  0  0  0  0
   -0.3990    3.7100   -1.1610 C   0  0  0  0  0  0  0  0  0  0  0  0
   -0.2960    5.1180   -1.7490 C   0  0  0  0  0  0  0  0  0  0  0  0
   -1.4780    2.8160   -1.7760 C   0  0  0  0  0  0  0  0  0  0  0  0
    3.6200    3.0220    0.5420 H   0  0  0  0  0  0  0  0  0  0  0  0
    3.9480   -0.1220    1.5850 H   0  0  0  0  0  0  0  0  0  0  0  0
    5.7370    0.3220   -0.8460 H   0  0  0  0  0  0  0  0  0  0  0  0
    6.2460   -0.5070    0.6440 H   0  0  0  0  0  0  0  0  0  0  0  0
    3.9010   -1.3670   -1.1240 H   0  0  0  0  0  0  0  0  0  0  0  0
    5.0220   -2.2870    1.5420 H   0  0  0  0  0  0  0  0  0  0  0  0
    3.3460   -2.4170    0.9110 H   0  0  0  0  0  0  0  0  0  0  0  0
    5.1240   -4.5470    0.8760 H   0  0  0  0  0  0  0  0  0  0  0  0
    3.8390   -4.3400   -0.3510 H   0  0  0  0  0  0  0  0  0  0  0  0
    6.3190   -4.3610   -1.3080 H   0  0  0  0  0  0  0  0  0  0  0  0
    3.4500    1.0820   -1.0420 H   0  0  0  0  0  0  0  0  0  0  0  0
    1.0060    1.0140   -1.5110 H   0  0  0  0  0  0  0  0  0  0  0  0
    1.8510    3.5410   -0.8760 H   0  0  0  0  0  0  0  0  0  0  0  0
    0.0830    4.4220    0.9530 H   0  0  0  0  0  0  0  0  0  0  0  0
   -0.0720    2.0900    1.9520 H   0  0  0  0  0  0  0  0  0  0  0  0
   -1.7000    2.3730    1.2620 H   0  0  0  0  0  0  0  0  0  0  0  0
   -2.9050    0.9130    0.8440 H   0  0  0  0  0  0  0  0  0  0  0  0
   -3.1500   -1.3710   -0.9590 H   0  0  0  0  0  0  0  0  0  0  0  0
   -0.5360   -1.9220    0.9430 H   0  0  0  0  0  0  0  0  0  0  0  0
   -1.2430   -2.7210    2.3670 H   0  0  0  0  0  0  0  0  0  0  0  0
   -2.1090   -2.7450    0.8120 H   0  0  0  0  0  0  0  0  0  0  0  0
   -1.8080    0.8700    3.0800 H   0  0  0  0  0  0  0  0  0  0  0  0
   -0.9930   -0.6170    3.6240 H   0  0  0  0  0  0  0  0  0  0  0  0
   -0.3760    0.2700    2.2090 H   0  0  0  0  0  0  0  0  0  0  0  0
   -4.1250   -1.7690    1.9190 H   0  0  0  0  0  0  0  0  0  0  0  0
   -3.2590   -1.7450    3.4740 H   0  0  0  0  0  0  0  0  0  0  0  0
   -3.9880   -0.2510    2.8380 H   0  0  0  0  0  0  0  0  0  0  0  0
    0.3410    5.0970   -2.6330 H   0  0  0  0  0  0  0  0  0  0  0  0
   -1.2900    5.4700   -2.0260 H   0  0  0  0  0  0  0  0  0  0  0  0
    0.1340    5.7910   -1.0080 H   0  0  0  0  0  0  0  0  0  0  0  0
   -1.7810    2.0610   -1.0510 H   0  0  0  0  0  0  0  0  0  0  0  0
   -2.3400    3.4240   -2.0500 H   0  0  0  0  0  0  0  0  0  0  0  0
   -1.0810    2.3270   -2.6650 H   0  0  0  0  0  0  0  0  0  0  0  0
    4.9510    3.7920    1.6070 H   0  0  0  0  0  0  0  0  0  0  0  0
    5.8680    1.6250    2.0270 H   0  0  0  0  0  0  0  0  0  0  0  0
  1  2  2  0  0  0  0
  2  3  1  0  0  0  0
 33 34  1  0  0  0  0
  3 11  1  0  0  0  0
  3  4  1  0  0  0  0
 15 33  1  0  0  0  0
 15 16  1  0  0  0  0
 14 15  1  0  0  0  0
 11 12  1  0  0  0  0
 16 33  1  0  0  0  0
 33 35  1  0  0  0  0
  4  5  1  0  0  0  0
 12 13  2  0  0  0  0
 12 14  1  0  0  0  0
 16 17  1  0  0  0  0
 14 18  1  0  0  0  0
  5  6  1  0  0  0  0
  5  9  1  0  0  0  0
  6  7  1  0  0  0  0
 17 18  1  0  0  0  0
 18 19  1  0  0  0  0
  9 10  2  0  0  0  0
  8  9  1  0  0  0  0
  7  8  1  0  0  0  0
 19 20  2  0  0  0  0
 19 21  1  0  0  0  0
 29 32  1  0  0  0  0
 21 29  1  0  0  0  0
 21 22  1  0  0  0  0
 29 31  1  0  0  0  0
 29 30  1  0  0  0  0
 22 23  1  0  0  0  0
 23 24  2  0  0  0  0
 23 25  1  0  0  0  0
 25 26  1  0  0  0  0
 25 27  1  0  0  0  0
 25 28  1  0  0  0  0
  1 36  1  0  0  0  0
  3 37  1  0  0  0  0
  4 38  1  0  0  0  0
  4 39  1  0  0  0  0
  5 40  1  0  0  0  0
  6 41  1  0  0  0  0
  6 42  1  0  0  0  0
  7 43  1  0  0  0  0
  7 44  1  0  0  0  0
  8 45  1  0  0  0  0
 11 46  1  0  0  0  0
 14 47  1  0  0  0  0
 15 48  1  0  0  0  0
 16 49  1  0  0  0  0
 17 50  1  0  0  0  0
 17 51  1  0  0  0  0
 21 52  1  0  0  0  0
 22 53  1  0  0  0  0
 30 54  1  0  0  0  0
 30 55  1  0  0  0  0
 30 56  1  0  0  0  0
 31 57  1  0  0  0  0
 31 58  1  0  0  0  0
 31 59  1  0  0  0  0
 32 60  1  0  0  0  0
 32 61  1  0  0  0  0
 32 62  1  0  0  0  0
 34 63  1  0  0  0  0
 34 64  1  0  0  0  0
 34 65  1  0  0  0  0
 35 66  1  0  0  0  0
 35 67  1  0  0  0  0
 35 68  1  0  0  0  0
  1 69  1  0  0  0  0
  2 70  1  0  0  0  0
M  END
> <OPENEYE_ISO_SMILES>
CC1([C@@H]2[C@H]1[C@H](N(C2)C(=O)[C@H](C(C)(C)C)NC(=O)C(F)(F)F)C(=O)N[C@@H](C[C@@H]3CCNC3=O)C=C)C

> <OPENEYE_INCHI>
InChI=1S/C24H35F3N4O4/c1-7-13(10-12-8-9-28-18(12)32)29-19(33)16-15-14(23(15,5)6)11-31(16)20(34)17(22(2,3)4)30-21(35)24(25,26)27/h7,12-17H,1,8-11H2,2-6H3,(H,28,32)(H,29,33)(H,30,35)/t12-,13+,14-,15-,16-,17+/m0/s1

> <OPENEYE_INCHIKEY>
TWWPGJPLBPBRGX-FHULIHMCSA-N

> <FORMULA>
C24H35F3N4O4

$$$$
