@<TRIPOS>MOLECULE
/home/pku/3cl/gett_pdb/6VGY/6VGY_mol2/ligand/6VGY_QZJ.pdb
 30 31 0 0 0
SMALL
GASTEIGER

@<TRIPOS>ATOM
      1  C11      -15.1480   -7.8360   -9.9820 C.3   401  QZJ401      0.1287
      2  C12      -16.6650   -8.2900   -9.7010 C.3   401  QZJ401      0.0335
      3  C13      -16.8490   -9.6940   -9.8520 C.3   401  QZJ401      0.0818
      4  C14      -18.2190   -9.9840   -9.5710 C.2   401  QZJ401      0.2410
      5  C02      -13.2960  -12.2600   -8.5180 C.2   401  QZJ401      0.4214
      6  C04      -12.3730  -10.1090   -8.4760 C.3   401  QZJ401      0.1761
      7  C05      -10.9810   -9.4370   -8.5260 C.3   401  QZJ401      0.0312
      8  C06       -9.9740   -9.8620   -7.4010 C.3   401  QZJ401      0.0022
      9  C07      -10.4920   -9.5830   -6.0520 C.3   401  QZJ401      0.0001
     10  C08       -8.6610   -9.2560   -7.6020 C.3   401  QZJ401      0.0001
     11  C09      -13.3580   -9.3940   -9.4430 C.2   401  QZJ401      0.2614
     12  C16      -17.6950  -11.0210  -11.5230 C.3   401  QZJ401      0.1156
     13  C17      -16.6130  -10.1620  -11.1620 C.3   401  QZJ401      0.0326
     14  C19      -14.7900   -6.2840  -10.0770 C.3   401  QZJ401      0.2036
     15  C23      -14.1750  -14.4100   -8.6150 C.3   401  QZJ401      0.1705
     16  C24      -14.9220  -14.4830   -9.8920 C.3   401  QZJ401      0.0437
     17  C25      -15.8910  -15.5630   -9.9550 C.3   401  QZJ401      0.0037
     18  C26      -15.3020  -16.9210   -9.5690 C.3   401  QZJ401      0.0002
     19  C27      -16.3900  -17.9810   -9.4850 C.3   401  QZJ401      0.0000
     20  C28      -15.9040  -19.3650   -9.1260 C.3   401  QZJ401      0.0000
     21  C29      -14.5730  -16.8370   -8.2570 C.3   401  QZJ401      0.0037
     22  C30      -13.6060  -15.7410   -8.2090 C.3   401  QZJ401      0.0437
     23  N03      -12.3310  -11.4480   -8.8200 N.am  401  QZJ401     -0.1611
     24  N10      -14.2720   -8.4560   -9.0550 N.am  401  QZJ401     -0.2030
     25  N15      -18.6240  -10.8290  -10.5890 N.am  401  QZJ401     -0.2054
     26  O01      -14.2740  -11.8650   -7.9890 O.2   401  QZJ401     -0.2246
     27  O18      -18.7810   -9.7000   -8.5810 O.2   401  QZJ401     -0.2734
     28  O20      -15.7270   -5.6530  -10.9460 O.3   401  QZJ401     -0.2185
     29  O21      -13.3440   -9.7050  -10.5740 O.2   401  QZJ401     -0.2715
     30  O22      -13.1540  -13.5260   -8.7520 O.3   401  QZJ401     -0.4373
@<TRIPOS>BOND
     1    12    13    1
     2    12    25    1
     3    13     3    1
     4    28    14    1
     5    25     4   am
     6    29    11    2
     7    14     1    1
     8     1     2    1
     9     1    24    1
    10    17    16    1
    11    17    18    1
    12    16    15    1
    13     3     2    1
    14     3     4    1
    15     4    27    2
    16    18    19    1
    17    18    21    1
    18    19    20    1
    19    11    24   am
    20    11     6    1
    21    23     5   am
    22    23     6    1
    23    30    15    1
    24    30     5    1
    25    15    22    1
    26     7     6    1
    27     7     8    1
    28     5    26    2
    29    21    22    1
    30    10     8    1
    31     8     9    1
