@<TRIPOS>MOLECULE
/home/pku/3cl/gett_pdb/5SSR/5SSR_mol2/ligand/5SSR_RVF.pdb
 39 42 0 0 0
SMALL
GASTEIGER

@<TRIPOS>ATOM
      1  C18      -47.6770  -29.0340    5.6980 C.ar  201  RVF201     -0.0476
      2  C17      -48.3700  -29.4650    4.5740 C.ar  201  RVF201      0.0388
      3  C15      -47.7180  -29.4820    3.2000 C.2   201  RVF201      0.2444
      4  C13      -45.7460  -30.0130    1.7470 C.3   201  RVF201      0.0398
      5  C12      -44.7280  -28.8980    1.5900 C.ar  201  RVF201      0.0038
      6  C11      -44.8860  -27.7530    0.7990 C.ar  201  RVF201      0.0050
      7  C10      -45.9190  -27.2820   -0.0210 C.ar  201  RVF201     -0.0523
      8  C20      -49.6320  -29.4870    7.0450 C.ar  201  RVF201      0.0689
      9  C19      -48.3050  -29.0400    6.9360 C.ar  201  RVF201     -0.0355
     10  C02      -42.8530  -29.8330    3.1300 C.2   201  RVF201      0.0881
     11  C04      -43.4740  -28.8120    2.1800 C.ar  201  RVF201      0.0676
     12  C06      -43.7260  -27.0280    0.9500 C.ar  201  RVF201      0.0473
     13  C07      -43.5740  -25.8090    0.2770 C.ar  201  RVF201     -0.0378
     14  C08      -44.5940  -25.3420   -0.5370 C.ar  201  RVF201     -0.0598
     15  C09      -45.7660  -26.0750   -0.6860 C.ar  201  RVF201     -0.0611
     16  C22      -51.6120  -30.0750    7.6440 C.ar  201  RVF201      0.2940
     17  C25      -50.3130  -29.9180    5.9290 C.ar  201  RVF201      0.0932
     18  C26      -49.6770  -29.9110    4.6850 C.ar  201  RVF201     -0.0220
     19  N05      -42.9100  -27.6900    1.7780 N.ar  201  RVF201     -0.3530
     20  N14      -46.3660  -29.9730    3.0530 N.am  201  RVF201     -0.3071
     21  N21      -50.4640  -29.5960    8.0910 N.ar  201  RVF201     -0.3080
     22  N24      -51.5380  -30.2750    6.3420 N.ar  201  RVF201     -0.1952
     23  O01      -43.5900  -30.6420    3.7520 O.co2 201  RVF201     -0.5431
     24  O03      -41.6060  -29.8640    3.2970 O.co2 201  RVF201     -0.5431
     25  O16      -48.3230  -29.1100    2.2560 O.2   201  RVF201     -0.2702
     26  O23      -52.7390  -30.3360    8.4310 O.3   201  RVF201     -0.4797
     27 H181      -46.6540  -28.6960    5.6060 H     201  RVF201      0.0626
     28 H131      -45.2360  -30.9630    1.6440 H     201  RVF201      0.0512
     29 H132      -46.5090  -29.9280    0.9760 H     201  RVF201      0.0512
     30 H101      -46.8300  -27.8590   -0.1320 H     201  RVF201      0.0624
     31 H191      -47.7690  -28.7050    7.8150 H     201  RVF201      0.0639
     32 H071      -42.6620  -25.2370    0.3940 H     201  RVF201      0.0638
     33 H081      -44.4780  -24.4020   -1.0570 H     201  RVF201      0.0618
     34 H091      -46.5580  -25.7060   -1.3220 H     201  RVF201      0.0618
     35 H261      -50.2070  -30.2500    3.8050 H     201  RVF201      0.0647
     36 H051      -42.0010  -27.3760    2.0540 H     201  RVF201      0.1659
     37 H141      -45.8610  -30.2820    3.8580 H     201  RVF201      0.1493
     38 H211      -50.2530  -29.3590    9.0360 H     201  RVF201      0.1704
     39 H231      -52.8670  -31.2700    8.4800 H     201  RVF201      0.2953
@<TRIPOS>UNITY_ATOM_ATTR
23 1
charge -1
@<TRIPOS>BOND
     1    34    15    1
     2    33    14    1
     3    15    14   ar
     4    15     7   ar
     5    14    13   ar
     6    30     7    1
     7     7     6   ar
     8    13    32    1
     9    13    12   ar
    10     6    12   ar
    11     6     5   ar
    12    12    19   ar
    13    29     4    1
    14     5     4    1
    15     5    11   ar
    16    28     4    1
    17     4    20    1
    18    19    36    1
    19    19    11   ar
    20    11    10    1
    21    25     3    2
    22    20     3   am
    23    20    37    1
    24    10    24   ar
    25    10    23   ar
    26     3     2    1
    27    35    18    1
    28     2    18   ar
    29     2     1   ar
    30    18    17   ar
    31    27     1    1
    32     1     9   ar
    33    17    22   ar
    34    17     8   ar
    35    22    16   ar
    36     9     8   ar
    37     9    31    1
    38     8    21   ar
    39    16    21   ar
    40    16    26    1
    41    21    38    1
    42    26    39    1
