@<TRIPOS>MOLECULE
/home/pku/3cl/gett_pdb/5SPJ/5SPJ_mol2/ligand/5SPJ_S3R.pdb
 33 35 0 0 0
SMALL
GASTEIGER

@<TRIPOS>ATOM
      1  C18      -44.7600  -29.3820    6.8550 C.ar  201  S3R201      0.1564
      2  C16      -47.0590  -29.1950    6.9520 C.ar  201  S3R201      0.0666
      3  C14      -47.1100  -28.9120    5.5940 C.ar  201  S3R201      0.1495
      4  C12      -44.8170  -29.0950    5.4980 C.ar  201  S3R201      0.1607
      5  C10      -43.6900  -29.0980    3.2620 C.3   201  S3R201      0.0706
      6  C01      -45.0050  -33.3540    0.6990 C.3   201  S3R201     -0.0044
      7  C02      -44.4850  -32.3650    1.7570 C.ar  201  S3R201      0.1306
      8  C05      -43.9300  -30.5590    2.8320 C.ar  201  S3R201      0.1509
      9  C07      -44.9540  -30.1910    0.5510 C.3   201  S3R201      0.0375
     10  C08      -46.0240  -29.0950    0.5120 C.3   201  S3R201     -0.0301
     11  C09      -46.2020  -30.3630   -0.3220 C.3   201  S3R201     -0.0301
     12  N03      -43.9670  -32.7190    2.9150 N.ar  201  S3R201     -0.1346
     13  N04      -43.6250  -31.5980    3.5730 N.ar  201  S3R201     -0.1327
     14  N06      -44.4720  -31.0120    1.6750 N.ar  201  S3R201     -0.3106
     15  N11      -43.5800  -29.0500    4.7250 N.pl3 201  S3R201     -0.3192
     16  N13      -45.9810  -28.8710    4.8960 N.ar  201  S3R201     -0.2157
     17  N17      -45.8950  -29.4250    7.5240 N.ar  201  S3R201     -0.2342
     18  N19      -43.4790  -29.6280    7.5350 N.pl3 201  S3R201     -0.3404
     19 CL15      -48.6830  -28.6160    4.8050 Cl    201  S3R201     -0.0603
     20 H161      -47.8290  -29.2240    7.4720 H     201  S3R201      0.0861
     21 H101      -44.4330  -28.5370    2.9810 H     201  S3R201      0.0542
     22 H102      -42.8720  -28.7800    2.8770 H     201  S3R201      0.0542
     23 H012      -44.6220  -33.1320   -0.1600 H     201  S3R201      0.0308
     24 H011      -45.9730  -33.3020    0.6490 H     201  S3R201      0.0308
     25 H013      -44.7430  -34.2530    0.9530 H     201  S3R201      0.0308
     26 H071      -44.2010  -29.9270   -0.0100 H     201  S3R201      0.0529
     27 H082      -46.5800  -29.0320    1.3040 H     201  S3R201      0.0286
     28 H081      -45.7870  -28.2960    0.0160 H     201  S3R201      0.0286
     29 H092      -46.0650  -30.2590   -1.2770 H     201  S3R201      0.0286
     30 H091      -46.8580  -30.9950    0.0110 H     201  S3R201      0.0286
     31 H111      -42.8120  -29.0090    5.1210 H     201  S3R201      0.1480
     32 H191      -42.7980  -29.1330    7.3550 H     201  S3R201      0.1438
     33 H192      -43.4020  -30.2530    8.1280 H     201  S3R201      0.1438
@<TRIPOS>BOND
     1    29    11    1
     2    11    30    1
     3    11    10    1
     4    11     9    1
     5    23     6    1
     6    26     9    1
     7    28    10    1
     8    10     9    1
     9    10    27    1
    10     9    14    1
    11    24     6    1
    12     6    25    1
    13     6     7    1
    14    14     7   ar
    15    14     8   ar
    16     7    12   ar
    17     8     5    1
    18     8    13   ar
    19    22     5    1
    20    12    13   ar
    21    21     5    1
    22     5    15    1
    23    15    31    1
    24    15     4    1
    25    19     3    1
    26    16     4   ar
    27    16     3   ar
    28     4     1   ar
    29     3     2   ar
    30     1    17   ar
    31     1    18    1
    32     2    20    1
    33     2    17   ar
    34    32    18    1
    35    18    33    1
