NZG
  -OEChem-02242320033D

 22 22  0     0  0  0  0  0  0999 V2000
    2.1160   -0.0040    0.3960 N   0  0  0  0  0  0  0  0  0  0  0  0
   -0.2540   -0.4210    0.2280 C   0  0  0  0  0  0  0  0  0  0  0  0
   -1.5550    0.0520    0.0430 C   0  0  0  0  0  0  0  0  0  0  0  0
   -1.7750    1.4160   -0.1640 C   0  0  0  0  0  0  0  0  0  0  0  0
   -0.7100    2.2910   -0.1850 C   0  0  0  0  0  0  0  0  0  0  0  0
    0.5810    1.8220   -0.0010 C   0  0  0  0  0  0  0  0  0  0  0  0
    3.9000   -1.6790    0.0350 C   0  0  0  0  0  0  0  0  0  0  0  0
    2.4720   -1.2130   -0.0820 C   0  0  0  0  0  0  0  0  0  0  0  0
    0.8090    0.4650    0.2110 C   0  0  0  0  0  0  0  0  0  0  0  0
   -2.6940   -0.8870    0.0650 C   0  0  0  0  0  0  0  0  0  0  0  0
    1.6200    2.6850   -0.0230 F   0  0  0  0  0  0  0  0  0  0  0  0
    1.6420   -1.9260   -0.6050 O   0  0  0  0  0  0  0  0  0  0  0  0
   -2.5000   -2.0730    0.2450 O   0  0  0  0  0  0  0  0  0  0  0  0
   -3.9480   -0.4290   -0.1140 O   0  0  0  0  0  0  0  0  0  0  0  0
    2.7630    0.5390    0.8730 H   0  0  0  0  0  0  0  0  0  0  0  0
   -0.0780   -1.4750    0.3890 H   0  0  0  0  0  0  0  0  0  0  0  0
   -2.7800    1.7850   -0.3090 H   0  0  0  0  0  0  0  0  0  0  0  0
   -0.8820    3.3450   -0.3460 H   0  0  0  0  0  0  0  0  0  0  0  0
    4.4940   -0.9100    0.5300 H   0  0  0  0  0  0  0  0  0  0  0  0
    3.9360   -2.5980    0.6190 H   0  0  0  0  0  0  0  0  0  0  0  0
    4.3040   -1.8650   -0.9600 H   0  0  0  0  0  0  0  0  0  0  0  0
   -4.6610   -1.0810   -0.0920 H   0  0  0  0  0  0  0  0  0  0  0  0
  4  5  2  0  0  0  0
  5  6  1  0  0  0  0
  6 11  1  0  0  0  0
  3  4  1  0  0  0  0
  6  9  2  0  0  0  0
 10 13  2  0  0  0  0
  3 10  1  0  0  0  0
  2  3  2  0  0  0  0
  2  9  1  0  0  0  0
  1  9  1  0  0  0  0
 10 14  1  0  0  0  0
  1  8  1  0  0  0  0
  8 12  2  0  0  0  0
  7  8  1  0  0  0  0
  1 15  1  0  0  0  0
  2 16  1  0  0  0  0
  4 17  1  0  0  0  0
  5 18  1  0  0  0  0
  7 19  1  0  0  0  0
  7 20  1  0  0  0  0
  7 21  1  0  0  0  0
 14 22  1  0  0  0  0
M  END
> <OPENEYE_ISO_SMILES>
CC(=O)Nc1cc(ccc1F)C(=O)O

> <OPENEYE_INCHI>
InChI=1S/C9H8FNO3/c1-5(12)11-8-4-6(9(13)14)2-3-7(8)10/h2-4H,1H3,(H,11,12)(H,13,14)

> <OPENEYE_INCHIKEY>
VOLGFCKUDWAJQS-UHFFFAOYSA-N

> <FORMULA>
C9H8FNO3

$$$$
