3R6
  -OEChem-02242320003D

 20 20  0     0  0  0  0  0  0999 V2000
    4.0700    0.3630   -0.0010 C   0  0  0  0  0  0  0  0  0  0  0  0
    2.8460   -0.9760   -0.0070 S   0  0  0  0  0  0  0  0  0  0  0  0
    1.3110   -0.1110    0.0010 C   0  0  0  0  0  0  0  0  0  0  0  0
    1.2990    1.2810    0.0100 C   0  0  0  0  0  0  0  0  0  0  0  0
    0.1010    1.9670    0.0170 C   0  0  0  0  0  0  0  0  0  0  0  0
   -1.0990    1.2740    0.0150 C   0  0  0  0  0  0  0  0  0  0  0  0
   -2.2760    1.9510    0.0220 O   0  0  0  0  0  0  0  0  0  0  0  0
   -1.0960   -0.1280    0.0060 C   0  0  0  0  0  0  0  0  0  0  0  0
    0.1200   -0.8170   -0.0060 C   0  0  0  0  0  0  0  0  0  0  0  0
   -2.3680   -0.8720    0.0050 C   0  0  0  0  0  0  0  0  0  0  0  0
   -2.3610   -2.2200   -0.0030 O   0  0  0  0  0  0  0  0  0  0  0  0
   -3.4240   -0.2700    0.0120 O   0  0  0  0  0  0  0  0  0  0  0  0
    3.9370    0.9730    0.8930 H   0  0  0  0  0  0  0  0  0  0  0  0
    5.0740   -0.0620   -0.0060 H   0  0  0  0  0  0  0  0  0  0  0  0
    3.9340    0.9830   -0.8870 H   0  0  0  0  0  0  0  0  0  0  0  0
    2.2310    1.8260    0.0110 H   0  0  0  0  0  0  0  0  0  0  0  0
    0.1000    3.0470    0.0240 H   0  0  0  0  0  0  0  0  0  0  0  0
   -2.6190    2.1520   -0.8590 H   0  0  0  0  0  0  0  0  0  0  0  0
    0.1310   -1.8960   -0.0140 H   0  0  0  0  0  0  0  0  0  0  0  0
   -3.2200   -2.6630   -0.0040 H   0  0  0  0  0  0  0  0  0  0  0  0
 10 12  2  0  0  0  0
 10 11  1  0  0  0  0
  8 10  1  0  0  0  0
  8  9  2  0  0  0  0
  3  9  1  0  0  0  0
  6  8  1  0  0  0  0
  2  3  1  0  0  0  0
  1  2  1  0  0  0  0
  3  4  2  0  0  0  0
  6  7  1  0  0  0  0
  5  6  2  0  0  0  0
  4  5  1  0  0  0  0
  1 13  1  0  0  0  0
  1 14  1  0  0  0  0
  1 15  1  0  0  0  0
  4 16  1  0  0  0  0
  5 17  1  0  0  0  0
  7 18  1  0  0  0  0
  9 19  1  0  0  0  0
 11 20  1  0  0  0  0
M  END
> <OPENEYE_ISO_SMILES>
CSc1ccc(c(c1)C(=O)O)O

> <OPENEYE_INCHI>
InChI=1S/C8H8O3S/c1-12-5-2-3-7(9)6(4-5)8(10)11/h2-4,9H,1H3,(H,10,11)

> <OPENEYE_INCHIKEY>
DATDARDTUZHWMK-UHFFFAOYSA-N

> <FORMULA>
C8H8O3S

$$$$
