W8J
  -OEChem-02242320043D

 35 37  0     1  0  0  0  0  0999 V2000
    1.1280   -0.1060   -0.2760 C   0  0  0  0  0  0  0  0  0  0  0  0
    3.8030    0.9710    0.6640 C   0  0  0  0  0  0  0  0  0  0  0  0
    5.8850   -0.1150    0.5740 C   0  0  0  0  0  0  0  0  0  0  0  0
   -1.5990    1.5460   -0.8080 C   0  0  0  0  0  0  0  0  0  0  0  0
   -3.6130    1.1230    0.2470 C   0  0  0  0  0  0  0  0  0  0  0  0
   -3.3070   -0.2480    0.3050 C   0  0  0  0  0  0  0  0  0  0  0  0
   -3.1490   -2.3820    0.5500 C   0  0  0  0  0  0  0  0  0  0  0  0
   -2.0760   -0.6840   -0.2340 C   0  0  0  0  0  0  0  0  0  0  0  0
    0.0490   -0.1580   -1.3600 C   0  0  0  0  0  0  0  0  0  0  0  0
    2.4700   -0.5350   -0.8720 C   0  0  0  0  0  0  0  0  0  0  0  0
    3.5490   -0.4830    0.2120 C   0  0  1  0  0  0  0  0  0  0  0  0
    4.9310   -0.8960   -0.3630 C   0  0  0  0  0  0  0  0  0  0  0  0
   -4.7970    1.5930    0.7580 N   0  0  0  0  0  0  0  0  0  0  0  0
   -3.9250   -1.3440    0.7750 N   0  0  0  0  0  0  0  0  0  0  0  0
   -2.0320   -1.9960   -0.0570 N   0  0  0  0  0  0  0  0  0  0  0  0
   -1.2370    0.2530   -0.7900 N   0  0  0  0  0  0  0  0  0  0  0  0
   -2.7360    1.9620   -0.3120 N   0  0  0  0  0  0  0  0  0  0  0  0
    5.2160    1.1280    0.8390 O   0  0  0  0  0  0  0  0  0  0  0  0
    1.2090    0.9110    0.1070 H   0  0  0  0  0  0  0  0  0  0  0  0
    0.8590   -0.7800    0.5370 H   0  0  0  0  0  0  0  0  0  0  0  0
    3.4450    1.6630   -0.0970 H   0  0  0  0  0  0  0  0  0  0  0  0
    3.2910    1.1610    1.6070 H   0  0  0  0  0  0  0  0  0  0  0  0
    6.0390   -0.6660    1.5020 H   0  0  0  0  0  0  0  0  0  0  0  0
    6.8390    0.0660    0.0790 H   0  0  0  0  0  0  0  0  0  0  0  0
   -0.9260    2.2700   -1.2440 H   0  0  0  0  0  0  0  0  0  0  0  0
   -3.3840   -3.4010    0.8210 H   0  0  0  0  0  0  0  0  0  0  0  0
    0.3180    0.5170   -2.1730 H   0  0  0  0  0  0  0  0  0  0  0  0
   -0.0320   -1.1750   -1.7430 H   0  0  0  0  0  0  0  0  0  0  0  0
    2.3890   -1.5520   -1.2550 H   0  0  0  0  0  0  0  0  0  0  0  0
    2.7390    0.1390   -1.6850 H   0  0  0  0  0  0  0  0  0  0  0  0
    3.2750   -1.1110    1.0600 H   0  0  0  0  0  0  0  0  0  0  0  0
    5.0400   -0.5680   -1.3970 H   0  0  0  0  0  0  0  0  0  0  0  0
    5.0870   -1.9710   -0.2760 H   0  0  0  0  0  0  0  0  0  0  0  0
   -5.4290    0.9780    1.1630 H   0  0  0  0  0  0  0  0  0  0  0  0
   -5.0020    2.5400    0.7150 H   0  0  0  0  0  0  0  0  0  0  0  0
 11 12  1  0  0  0  0
  3 12  1  0  0  0  0
 10 11  1  0  0  0  0
  1 10  1  0  0  0  0
  2 11  1  0  0  0  0
  3 18  1  0  0  0  0
  1  9  1  0  0  0  0
  2 18  1  0  0  0  0
  9 16  1  0  0  0  0
  4 16  1  0  0  0  0
  4 17  2  0  0  0  0
  8 16  1  0  0  0  0
  5 17  1  0  0  0  0
  8 15  2  0  0  0  0
  6  8  1  0  0  0  0
  7 15  1  0  0  0  0
  5  6  2  0  0  0  0
  5 13  1  0  0  0  0
  6 14  1  0  0  0  0
  7 14  2  0  0  0  0
  1 19  1  0  0  0  0
  1 20  1  0  0  0  0
  2 21  1  0  0  0  0
  2 22  1  0  0  0  0
  3 23  1  0  0  0  0
  3 24  1  0  0  0  0
  4 25  1  0  0  0  0
  7 26  1  0  0  0  0
  9 27  1  0  0  0  0
  9 28  1  0  0  0  0
 10 29  1  0  0  0  0
 10 30  1  0  0  0  0
 11 31  1  0  0  0  0
 12 32  1  0  0  0  0
 12 33  1  0  0  0  0
 13 34  1  0  0  0  0
 13 35  1  0  0  0  0
M  END
> <OPENEYE_ISO_SMILES>
c1nc-2c(ncn(c2n1)CCC[C@H]3CCOC3)N

> <OPENEYE_INCHI>
InChI=1S/C12H17N5O/c13-11-10-12(15-7-14-10)17(8-16-11)4-1-2-9-3-5-18-6-9/h7-9H,1-6,13H2/t9-/m0/s1

> <OPENEYE_INCHIKEY>
GTHFXQJDSWIMIA-VIFPVBQESA-N

> <FORMULA>
C12H17N5O

$$$$
