@<TRIPOS>MOLECULE
/home/pku/3cl/gett_pdb/5SRE/5SRE_mol2/ligand/5SRE_R8R.pdb
 44 48 0 0 0
SMALL
GASTEIGER

@<TRIPOS>ATOM
      1  C18      -41.5620  -30.6950    0.9530 C.3   201  R8R201     -0.0520
      2  N1       -45.3560  -29.2380    2.8980 N.pl3 201  R8R201     -0.3139
      3  C16      -43.7100  -30.2430    1.1180 C.3   201  R8R201     -0.0177
      4  C17      -42.3980  -29.7450    1.8090 C.3   201  R8R201     -0.0466
      5  C15      -44.5120  -29.0300    0.6360 C.3   201  R8R201     -0.0308
      6  C14      -45.0270  -28.2720    1.8510 C.3   201  R8R201      0.0141
      7  C13      -44.0050  -29.1510    6.1850 C.ar  201  R8R201      0.1204
      8  O2       -43.3880  -31.4380    3.9150 O.co2 201  R8R201     -0.3086
      9  C12      -46.2360  -29.0470    6.3860 C.ar  201  R8R201      0.1442
     10  C11      -48.5210  -29.0270    3.5060 C.ar  201  R8R201     -0.0491
     11  C10      -49.8960  -28.9630    3.5660 C.ar  201  R8R201     -0.0257
     12  C9       -50.5200  -28.9130    4.8050 C.ar  201  R8R201      0.1254
     13  C8       -49.8250  -28.9080    5.9900 C.ar  201  R8R201     -0.0025
     14  C7       -48.4390  -28.9680    5.9340 C.ar  201  R8R201      0.0515
     15  C6       -47.7840  -29.0340    4.6920 C.ar  201  R8R201      0.0124
     16  C5       -46.3800  -29.0820    4.9930 C.ar  201  R8R201      0.0663
     17  C4       -45.2250  -29.1020    4.2360 C.ar  201  R8R201      0.1344
     18  C3       -45.8290  -30.5020    2.3500 C.3   201  R8R201      0.0227
     19  C19      -42.7870  -30.9620    0.0710 C.3   201  R8R201     -0.0466
     20  C2       -44.5970  -31.2560    1.8630 C.3   201  R8R201      0.0291
     21  C1       -43.9050  -32.0150    2.9960 C.2   201  R8R201      0.0922
     22  O1       -43.9260  -33.2200    2.9180 O.co2 201  R8R201     -0.8473
     23  F1       -51.8830  -28.8540    4.8380 F     201  R8R201     -0.2054
     24  N2       -47.4810  -28.9810    6.9450 N.ar  201  R8R201     -0.3389
     25  N3       -45.0490  -29.0820    7.0130 N.ar  201  R8R201     -0.2178
     26  N4       -44.0350  -29.1850    4.8420 N.ar  201  R8R201     -0.2200
     27  H16      -40.8210  -30.2570    0.4880 H     201  R8R201      0.0266
     28  H15      -41.2360  -31.4830    1.4330 H     201  R8R201      0.0266
     29  H13      -42.2070  -28.8050    1.6530 H     201  R8R201      0.0271
     30  H14      -42.3590  -29.9300    2.7600 H     201  R8R201      0.0271
     31  H11      -45.2620  -29.3110    0.0680 H     201  R8R201      0.0286
     32  H12      -43.9340  -28.4410    0.1000 H     201  R8R201      0.0286
     33  H10      -45.8300  -27.7570    1.6080 H     201  R8R201      0.0464
     34  H9       -44.3440  -27.6500    2.1720 H     201  R8R201      0.0464
     35  H8       -43.1480  -29.1820    6.5940 H     201  R8R201      0.1048
     36  H6       -48.0740  -29.0800    2.6700 H     201  R8R201      0.0625
     37  H5       -50.3930  -28.9780    2.7760 H     201  R8R201      0.0646
     38  H4       -50.2620  -28.8710    6.8140 H     201  R8R201      0.0667
     39  H3       -46.2910  -31.0270    3.0450 H     201  R8R201      0.0471
     40  H2       -46.4570  -30.3440    1.6040 H     201  R8R201      0.0471
     41  H18      -42.9850  -31.9130   -0.0460 H     201  R8R201      0.0271
     42  H17      -42.7510  -30.5240   -0.8000 H     201  R8R201      0.0271
     43  H1       -44.8890  -31.9350    1.2460 H     201  R8R201      0.0389
     44  H7       -47.6500  -28.9560    7.8000 H     201  R8R201      0.1673
@<TRIPOS>UNITY_ATOM_ATTR
22 1
charge -1
@<TRIPOS>BOND
     1    42    19    1
     2    41    19    1
     3    31     5    1
     4    19     1    1
     5    19     3    1
     6    32     5    1
     7    27     1    1
     8     5     3    1
     9     5     6    1
    10     1    28    1
    11     1     4    1
    12     3     4    1
    13     3    20    1
    14    43    20    1
    15    40    18    1
    16    33     6    1
    17    29     4    1
    18     4    30    1
    19     6    34    1
    20     6     2    1
    21    20    18    1
    22    20    21    1
    23    18     2    1
    24    18    39    1
    25    36    10    1
    26    37    11    1
    27     2    17    1
    28    22    21   ar
    29    21     8   ar
    30    10    11   ar
    31    10    15   ar
    32    11    12   ar
    33    17    26   ar
    34    17    16   ar
    35    15    16   ar
    36    15    14   ar
    37    12    23    1
    38    12    13   ar
    39    26     7   ar
    40    16     9   ar
    41    14    13   ar
    42    14    24   ar
    43    13    38    1
    44     7    35    1
    45     7    25   ar
    46     9    24   ar
    47     9    25   ar
    48    24    44    1
