@<TRIPOS>MOLECULE
/home/pku/3cl/gett_pdb/7RFS/7RFS_mol2/ligand/7RFS_4WI.pdb
 68 70 0 0 0
SMALL
GASTEIGER

@<TRIPOS>ATOM
      1  C8         6.5720    1.3730   18.1050 C.2   401  4WI401      0.2162
      2  C3         7.8520   -3.2170   19.7130 C.2   401  4WI401      0.0750
      3  C1         9.1930   -0.6640   21.6590 C.2   401  4WI401      0.2344
      4  C13       10.2550    2.1690   22.0260 C.2   401  4WI401      0.2371
      5  C21       12.2500    4.8950   22.7780 C.2   401  4WI401      0.3179
      6  C6         5.6200    0.4690   20.0760 C.3   401  4WI401     -0.0262
      7  C7         5.0470    1.8490   19.8060 C.3   401  4WI401      0.0123
      8  C10       11.1640    0.8930   24.0310 C.3   401  4WI401      0.0192
      9  C5         6.9310    0.4920   19.2820 C.3   401  4WI401      0.0390
     10  C9        10.6090   -0.2500   21.9250 C.3   401  4WI401      0.1058
     11  C11       11.6880   -0.4880   24.0800 C.3   401  4WI401     -0.0142
     12  C12       11.3540   -1.1960   22.8130 C.3   401  4WI401     -0.0037
     13  C18       12.8150   -1.0190   23.2140 C.3   401  4WI401     -0.0250
     14  C19       13.6360   -0.0210   22.4740 C.3   401  4WI401     -0.0592
     15  C20       13.5520   -2.2050   23.7180 C.3   401  4WI401     -0.0592
     16  C16        8.9220    5.0820   24.0620 C.3   401  4WI401     -0.0579
     17  C17        7.9190    2.9270   23.5330 C.3   401  4WI401     -0.0579
     18  C23        8.3010    4.6080   21.7420 C.3   401  4WI401     -0.0579
     19  C4         7.3330   -0.9010   18.8270 C.3   401  4WI401     -0.0177
     20  C2         7.7460   -1.7490   20.0190 C.3   401  4WI401      0.0672
     21  C14       10.2520    3.4270   22.8600 C.3   401  4WI401      0.1047
     22  C22       13.1380    5.6360   21.8090 C.3   401  4WI401      0.4694
     23  C15        8.8510    3.9970   23.0150 C.3   401  4WI401     -0.0108
     24  N5         6.7760   -3.9400   19.6300 N.2   401  4WI401     -0.3003
     25  N2         5.4140    2.0610   18.4290 N.am  401  4WI401     -0.3151
     26  N3        10.5440    1.0030   22.6930 N.am  401  4WI401     -0.2878
     27  N1         9.0550   -1.3350   20.4720 N.am  401  4WI401     -0.3054
     28  N4        11.1630    4.3060   22.1500 N.am  401  4WI401     -0.2962
     29  O1         7.2110    1.4690   17.0730 O.2   401  4WI401     -0.2755
     30  O2         8.2800   -0.4200   22.4340 O.2   401  4WI401     -0.2737
     31  O3         9.9930    2.1780   20.8300 O.2   401  4WI401     -0.2735
     32  O4        12.4810    4.8740   23.9830 O.2   401  4WI401     -0.2660
     33  F1        13.1310    5.0840   20.5740 F     401  4WI401     -0.1620
     34  F2        14.4450    5.6180   22.1610 F     401  4WI401     -0.1620
     35  F3        12.8000    6.9470   21.6690 F     401  4WI401     -0.1620
     36  H5         5.8080    0.3230   21.1430 H     401  4WI401      0.0288
     37  H6         4.9470   -0.3120   19.7140 H     401  4WI401      0.0288
     38  H7         3.9590    1.8750   19.9000 H     401  4WI401      0.0462
     39  H8         5.5100    2.6210   20.4270 H     401  4WI401      0.0462
     40  H11       10.4140    1.0840   24.8030 H     401  4WI401      0.0468
     41  H12       12.0100    1.5790   24.1250 H     401  4WI401      0.0468
     42  H4         7.7260    0.9840   19.8520 H     401  4WI401      0.0395
     43  H10       11.1510   -0.0770   20.9920 H     401  4WI401      0.0600
     44  H13       11.2880   -1.0160   24.9440 H     401  4WI401      0.0325
     45  H14       10.8890   -2.1690   22.8930 H     401  4WI401      0.0332
     46  H23       14.1400   -0.5090   21.6350 H     401  4WI401      0.0235
     47  H24       14.4010    0.3910   23.1370 H     401  4WI401      0.0235
     48  H25       13.0450    0.8070   22.0800 H     401  4WI401      0.0235
     49  H26       13.9970   -2.7550   22.8850 H     401  4WI401      0.0235
     50  H27       12.8730   -2.8720   24.2560 H     401  4WI401      0.0235
     51  H28       14.3490   -1.8940   24.3980 H     401  4WI401      0.0235
     52  H17        9.7100    5.8000   23.8250 H     401  4WI401      0.0236
     53  H19        9.1270    4.6510   25.0460 H     401  4WI401      0.0236
     54  H18        7.9710    5.6180   24.1120 H     401  4WI401      0.0236
     55  H20        7.5030    2.3430   22.7080 H     401  4WI401      0.0236
     56  H21        7.0900    3.3880   24.0750 H     401  4WI401      0.0236
     57  H22        8.4420    2.2540   24.2170 H     401  4WI401      0.0236
     58  H29        8.3400    3.8980   20.9130 H     401  4WI401      0.0236
     59  H30        8.8710    5.4990   21.4660 H     401  4WI401      0.0236
     60  H31        7.2590    4.9020   21.8910 H     401  4WI401      0.0236
     61  H2         8.1650   -0.8170   18.1240 H     401  4WI401      0.0294
     62  H3         6.5000   -1.3780   18.3050 H     401  4WI401      0.0294
     63  H32        7.0370   -1.6910   20.8510 H     401  4WI401      0.0564
     64  H15       10.6410    3.2730   23.8600 H     401  4WI401      0.0600
     65  H36        6.9650   -4.9370   19.4920 H     401  4WI401      0.1865
     66  H9         5.1970    2.9420   17.9750 H     401  4WI401      0.1487
     67  H1         9.8630   -1.5220   19.8880 H     401  4WI401      0.1494
     68  H16       11.0750    4.3810   21.1410 H     401  4WI401      0.1497
@<TRIPOS>BOND
     1    29     1    2
     2    66    25    1
     3     1    25   am
     4     1     9    1
     5    61    19    1
     6    62    19    1
     7    25     7    1
     8    19     9    1
     9    19    20    1
    10     9    42    1
    11     9     6    1
    12    65    24    1
    13    24     2    2
    14     2    20    1
    15    37     6    1
    16     7    38    1
    17     7     6    1
    18     7    39    1
    19    67    27    1
    20    20    27    1
    21    20    63    1
    22     6    36    1
    23    27     3   am
    24    33    22    1
    25    31     4    2
    26    58    18    1
    27    43    10    1
    28    68    28    1
    29    59    18    1
    30    46    14    1
    31     3    10    1
    32     3    30    2
    33    35    22    1
    34    18    60    1
    35    18    23    1
    36    22    34    1
    37    22     5    1
    38    10    26    1
    39    10    12    1
    40     4    26   am
    41     4    21    1
    42    48    14    1
    43    28     5   am
    44    28    21    1
    45    14    47    1
    46    14    13    1
    47    26     8    1
    48    55    17    1
    49     5    32    2
    50    12    45    1
    51    12    13    1
    52    12    11    1
    53    21    23    1
    54    21    64    1
    55    49    15    1
    56    23    17    1
    57    23    16    1
    58    13    15    1
    59    13    11    1
    60    17    56    1
    61    17    57    1
    62    15    50    1
    63    15    51    1
    64    52    16    1
    65     8    11    1
    66     8    41    1
    67     8    40    1
    68    16    54    1
    69    16    53    1
    70    11    44    1
