@<TRIPOS>MOLECULE
/home/pku/3cl/gett_pdb/7RFR/7RFR_mol2/ligand/7RFR_4W8.pdb
 43 49 0 0 0
SMALL
GASTEIGER

@<TRIPOS>ATOM
      1  C41      -15.1590   17.2750   -0.2550 C.ar  9001  4W89001     0.0016
      2  C42      -14.9600   16.5230   -1.4070 C.ar  9001  4W89001     0.0006
      3  C5       -22.7260    7.9850    6.1520 C.2   9001  4W89001    -0.0167
      4  C40      -14.6870   16.8300    0.9710 C.ar  9001  4W89001     0.0196
      5  C6       -21.3380    7.9200    6.1060 C.3   9001  4W89001     0.0719
      6  C4       -23.4390    8.7390    5.2250 C.2   9001  4W89001     0.0328
      7  C43      -14.2410   15.3400   -1.3620 C.ar  9001  4W89001     0.0080
      8  C10      -20.3660   10.0200    3.3350 C.2   9001  4W89001     0.0279
      9  C11      -21.3640    9.4080    4.1680 C.2   9001  4W89001     0.0495
     10  C39      -13.9940   15.6220    1.0390 C.ar  9001  4W89001     0.0876
     11  C7       -20.6710    8.6430    5.1210 C.2   9001  4W89001     0.0664
     12  C3       -22.7680    9.4620    4.2410 C.2   9001  4W89001     0.1395
     13  C44      -13.7830   14.8840   -0.1310 C.ar  9001  4W89001     0.0483
     14  C9       -19.1360    9.6070    3.7940 C.2   9001  4W89001     0.1344
     15  C37      -12.9130   13.9050    1.9370 C.ar  9001  4W89001     0.1203
     16  C33      -13.1530   10.2200    7.1650 C.2   9001  4W89001     0.2410
     17  C12      -17.7290    9.8680    3.3870 C.2   9001  4W89001     0.2671
     18  C35      -12.2390   13.0530    2.9650 C.3   9001  4W89001     0.2174
     19  C22      -15.3740   11.7260    2.8550 C.2   9001  4W89001     0.2595
     20  C30      -14.5770   12.1230    6.7520 C.3   9001  4W89001     0.0326
     21  C31      -14.7190   11.6380    8.1830 C.3   9001  4W89001     0.1156
     22  C15      -18.4250   11.2320    1.3580 C.3   9001  4W89001     0.0942
     23  C28      -13.7440   11.0380    6.0320 C.3   9001  4W89001     0.0818
     24  C20      -16.0860   10.7930    1.8790 C.3   9001  4W89001     0.1537
     25  C16      -17.6170   11.5700    0.1090 C.3   9001  4W89001     0.0220
     26  C18      -16.1540   11.3870    0.4560 C.3   9001  4W89001     0.0289
     27  C46      -16.7810   10.5700   -0.6550 C.3   9001  4W89001     0.0037
     28  C47      -16.4640   10.9340   -2.1050 C.3   9001  4W89001     0.0001
     29  C48      -16.9800    9.0680   -0.4440 C.3   9001  4W89001     0.0001
     30  C1       -24.7900   10.3900    3.3330 C.3   9001  4W89001     0.2525
     31  C27      -12.6770   11.5720    5.0540 C.3   9001  4W89001     0.0339
     32  C25      -13.2520   12.3290    3.8500 C.3   9001  4W89001     0.1324
     33  N38      -13.4770   15.0490    2.1990 N.ar  9001  4W89001    -0.2401
     34  N8       -19.3130    8.7850    4.8920 N.2   9001  4W89001    -0.2446
     35  N32      -13.6140   10.6980    8.3250 N.am  9001  4W89001    -0.2054
     36  N14      -17.4790   10.5970    2.2810 N.am  9001  4W89001    -0.2682
     37  N24      -14.0820   11.4640    3.0380 N.am  9001  4W89001    -0.2027
     38  O34      -12.4380    9.2370    7.0310 O.2   9001  4W89001    -0.2734
     39  O13      -16.8170    9.4070    4.0860 O.2   9001  4W89001    -0.2682
     40  O36      -11.1310   13.6110    3.6630 O.3   9001  4W89001    -0.2142
     41  O23      -15.9750   12.6160    3.4510 O.2   9001  4W89001    -0.2716
     42  O2       -23.3680   10.2350    3.2810 O.2   9001  4W89001    -0.4714
     43  S45      -12.9030   13.4300    0.2450 S.2   9001  4W89001    -0.0683
@<TRIPOS>BOND
     1    28    27    1
     2     2     7   ar
     3     2     1   ar
     4     7    13   ar
     5    27    29    1
     6    27    25    1
     7    27    26    1
     8     1     4   ar
     9    13    43   ar
    10    13    10   ar
    11    25    26    1
    12    25    22    1
    13    43    15   ar
    14    26    24    1
    15     4    10   ar
    16    10    33   ar
    17    22    36    1
    18    24    36    1
    19    24    19    1
    20    15    33   ar
    21    15    18    1
    22    36    17   am
    23    19    37   am
    24    19    41    2
    25    18    40    1
    26    18    32    1
    27    37    32    1
    28    42    30    1
    29    42    12    1
    30     8    14    2
    31     8     9    1
    32    17    14    1
    33    17    39    2
    34    14    34    1
    35    32    31    1
    36     9    12    2
    37     9    11    1
    38    12     6    1
    39    34    11    2
    40    31    23    1
    41    11     5    1
    42     6     3    2
    43    23    20    1
    44    23    16    1
    45     5     3    1
    46    20    21    1
    47    38    16    2
    48    16    35   am
    49    21    35    1
