QNF
  -OEChem-02242320033D

 43 46  0     1  0  0  0  0  0999 V2000
   -3.8790    0.1050   -0.7840 C   0  0  0  0  0  0  0  0  0  0  0  0
   -2.4510   -0.7230    0.9650 C   0  0  0  0  0  0  0  0  0  0  0  0
   -3.7000   -0.6410    0.3830 C   0  0  0  0  0  0  0  0  0  0  0  0
   -1.3690   -0.0570    0.3830 C   0  0  0  0  0  0  0  0  0  0  0  0
   -0.0310   -0.1410    1.0000 C   0  0  0  0  0  0  0  0  0  0  0  0
    2.3400    0.4190    1.0520 C   0  0  1  0  0  0  0  0  0  0  0  0
    3.0830   -0.7930    0.5320 C   0  0  0  0  0  0  0  0  0  0  0  0
    2.9640   -2.1310    0.8680 C   0  0  0  0  0  0  0  0  0  0  0  0
   -6.2220   -0.2070   -0.6380 C   0  0  0  0  0  0  0  0  0  0  0  0
    2.3320    2.8080    0.2790 C   0  0  0  0  0  0  0  0  0  0  0  0
    3.2010    1.6300    0.6360 C   0  0  2  0  0  0  0  0  0  0  0  0
    3.9410    1.0980   -0.6100 C   0  0  0  0  0  0  0  0  0  0  0  0
    4.0030   -0.4030   -0.4220 C   0  0  0  0  0  0  0  0  0  0  0  0
    4.8040   -1.3550   -1.0400 C   0  0  0  0  0  0  0  0  0  0  0  0
    4.6810   -2.6940   -0.7000 C   0  0  0  0  0  0  0  0  0  0  0  0
    3.7600   -3.0790    0.2550 C   0  0  0  0  0  0  0  0  0  0  0  0
   -6.0390   -0.6510    0.7940 C   0  0  0  0  0  0  0  0  0  0  0  0
   -2.8040    0.7670   -1.3620 C   0  0  0  0  0  0  0  0  0  0  0  0
   -1.5550    0.6880   -0.7850 C   0  0  0  0  0  0  0  0  0  0  0  0
    1.0120    0.5020    0.4390 N   0  0  0  0  0  0  0  0  0  0  0  0
   -5.1490    0.1710   -1.3640 N   0  0  0  0  0  0  0  0  0  0  0  0
    2.0230    3.0050   -0.8720 O   0  0  0  0  0  0  0  0  0  0  0  0
    5.7100   -0.9750   -1.9790 O   0  0  0  0  0  0  0  0  0  0  0  0
   -4.7640   -1.2820    0.9370 O   0  0  0  0  0  0  0  0  0  0  0  0
   -7.3300   -0.1860   -1.1320 O   0  0  0  0  0  0  0  0  0  0  0  0
    0.1300   -0.7900    2.0160 O   0  0  0  0  0  0  0  0  0  0  0  0
    1.9000    3.6390    1.2410 O   0  0  0  0  0  0  0  0  0  0  0  0
   -2.3110   -1.3000    1.8670 H   0  0  0  0  0  0  0  0  0  0  0  0
    2.2530    0.3720    2.1370 H   0  0  0  0  0  0  0  0  0  0  0  0
    2.2440   -2.4360    1.6140 H   0  0  0  0  0  0  0  0  0  0  0  0
    3.9050    1.8950    1.4250 H   0  0  0  0  0  0  0  0  0  0  0  0
    3.3850    1.3430   -1.5140 H   0  0  0  0  0  0  0  0  0  0  0  0
    4.9470    1.5160   -0.6600 H   0  0  0  0  0  0  0  0  0  0  0  0
    5.3030   -3.4340   -1.1810 H   0  0  0  0  0  0  0  0  0  0  0  0
    3.6630   -4.1210    0.5210 H   0  0  0  0  0  0  0  0  0  0  0  0
   -6.1000    0.2150    1.4530 H   0  0  0  0  0  0  0  0  0  0  0  0
   -6.8210   -1.3630    1.0560 H   0  0  0  0  0  0  0  0  0  0  0  0
   -2.9460    1.3430   -2.2640 H   0  0  0  0  0  0  0  0  0  0  0  0
   -0.7190    1.2040   -1.2350 H   0  0  0  0  0  0  0  0  0  0  0  0
    0.8830    1.0200   -0.3710 H   0  0  0  0  0  0  0  0  0  0  0  0
   -5.2570    0.4860   -2.2750 H   0  0  0  0  0  0  0  0  0  0  0  0
    6.5820   -0.7600   -1.6210 H   0  0  0  0  0  0  0  0  0  0  0  0
    1.3440    4.3810    0.9640 H   0  0  0  0  0  0  0  0  0  0  0  0
 10 22  2  0  0  0  0
 11 12  1  0  0  0  0
 12 13  1  0  0  0  0
 13 14  2  0  0  0  0
 14 23  1  0  0  0  0
 14 15  1  0  0  0  0
 15 16  2  0  0  0  0
  8 16  1  0  0  0  0
  7  8  2  0  0  0  0
  6  7  1  0  0  0  0
  6 20  1  0  0  0  0
  5 20  1  0  0  0  0
  2  4  2  0  0  0  0
  2  3  1  0  0  0  0
  1  3  2  0  0  0  0
  9 21  1  0  0  0  0
 17 24  1  0  0  0  0
  9 17  1  0  0  0  0
  9 25  2  0  0  0  0
  1 21  1  0  0  0  0
  1 18  1  0  0  0  0
 18 19  2  0  0  0  0
  4  5  1  0  0  0  0
  5 26  2  0  0  0  0
 10 11  1  0  0  0  0
 10 27  1  0  0  0  0
  6 11  1  0  0  0  0
  7 13  1  0  0  0  0
  4 19  1  0  0  0  0
  3 24  1  0  0  0  0
  2 28  1  0  0  0  0
  6 29  1  0  0  0  0
  8 30  1  0  0  0  0
 11 31  1  0  0  0  0
 12 32  1  0  0  0  0
 12 33  1  0  0  0  0
 15 34  1  0  0  0  0
 16 35  1  0  0  0  0
 17 36  1  0  0  0  0
 17 37  1  0  0  0  0
 18 38  1  0  0  0  0
 19 39  1  0  0  0  0
 20 40  1  0  0  0  0
 21 41  1  0  0  0  0
 23 42  1  0  0  0  0
 27 43  1  0  0  0  0
M  END
> <OPENEYE_ISO_SMILES>
c1cc2c(c(c1)O)C[C@H]([C@H]2NC(=O)c3ccc4c(c3)OCC(=O)N4)C(=O)O

> <OPENEYE_INCHI>
InChI=1S/C19H16N2O6/c22-14-3-1-2-10-11(14)7-12(19(25)26)17(10)21-18(24)9-4-5-13-15(6-9)27-8-16(23)20-13/h1-6,12,17,22H,7-8H2,(H,20,23)(H,21,24)(H,25,26)/t12-,17+/m1/s1

> <OPENEYE_INCHIKEY>
NPDVANGOGQJPGW-PXAZEXFGSA-N

> <FORMULA>
C19H16N2O6

$$$$
