QNV
  -OEChem-02242320033D

 43 46  0     1  0  0  0  0  0999 V2000
    2.6190   -2.3810   -0.0760 C   0  0  0  0  0  0  0  0  0  0  0  0
    3.0900   -1.4990    1.0510 C   0  0  1  0  0  0  0  0  0  0  0  0
    4.4950   -0.9320    0.7530 C   0  0  0  0  0  0  0  0  0  0  0  0
    4.2480    0.3950    0.0670 C   0  0  0  0  0  0  0  0  0  0  0  0
    5.0990    1.1850   -0.6960 C   0  0  0  0  0  0  0  0  0  0  0  0
    4.6430    2.3810   -1.2310 C   0  0  0  0  0  0  0  0  0  0  0  0
    3.3420    2.7850   -1.0040 C   0  0  0  0  0  0  0  0  0  0  0  0
    2.4970    1.9980   -0.2450 C   0  0  0  0  0  0  0  0  0  0  0  0
    2.9480    0.8030    0.2920 C   0  0  0  0  0  0  0  0  0  0  0  0
    2.2300   -0.2210    1.1450 C   0  0  1  0  0  0  0  0  0  0  0  0
   -0.1630    0.2310    1.0830 C   0  0  0  0  0  0  0  0  0  0  0  0
   -1.5160   -0.0220    0.5500 C   0  0  0  0  0  0  0  0  0  0  0  0
   -2.6060    0.7110    1.0300 C   0  0  0  0  0  0  0  0  0  0  0  0
   -3.8680    0.4700    0.5280 C   0  0  0  0  0  0  0  0  0  0  0  0
   -4.0540   -0.5030   -0.4560 C   0  0  0  0  0  0  0  0  0  0  0  0
   -6.3090    0.1760   -0.7170 C   0  0  0  0  0  0  0  0  0  0  0  0
   -5.9820    1.4380    0.0400 C   0  0  0  0  0  0  0  0  0  0  0  0
   -2.9720   -1.2300   -0.9330 C   0  0  0  0  0  0  0  0  0  0  0  0
   -1.7080   -0.9900   -0.4390 C   0  0  0  0  0  0  0  0  0  0  0  0
    0.8870   -0.4720    0.6160 N   0  0  0  0  0  0  0  0  0  0  0  0
   -5.3400   -0.7360   -0.9520 N   0  0  0  0  0  0  0  0  0  0  0  0
    3.0150   -2.1870   -1.2010 O   0  0  0  0  0  0  0  0  0  0  0  0
    6.3780    0.7860   -0.9190 O   0  0  0  0  0  0  0  0  0  0  0  0
   -4.9390    1.1750    0.9830 O   0  0  0  0  0  0  0  0  0  0  0  0
   -7.4380   -0.0210   -1.1130 O   0  0  0  0  0  0  0  0  0  0  0  0
    0.0030    1.0730    1.9440 O   0  0  0  0  0  0  0  0  0  0  0  0
    1.7630   -3.3850    0.1700 O   0  0  0  0  0  0  0  0  0  0  0  0
    3.0810   -2.0430    1.9960 H   0  0  0  0  0  0  0  0  0  0  0  0
    5.0460   -0.7810    1.6810 H   0  0  0  0  0  0  0  0  0  0  0  0
    5.0420   -1.6050    0.0940 H   0  0  0  0  0  0  0  0  0  0  0  0
    5.3050    2.9950   -1.8240 H   0  0  0  0  0  0  0  0  0  0  0  0
    2.9860    3.7160   -1.4190 H   0  0  0  0  0  0  0  0  0  0  0  0
    1.4810    2.3170   -0.0680 H   0  0  0  0  0  0  0  0  0  0  0  0
    2.1730    0.1210    2.1780 H   0  0  0  0  0  0  0  0  0  0  0  0
   -2.4600    1.4620    1.7920 H   0  0  0  0  0  0  0  0  0  0  0  0
   -5.6530    2.2060   -0.6600 H   0  0  0  0  0  0  0  0  0  0  0  0
   -6.8700    1.7840    0.5680 H   0  0  0  0  0  0  0  0  0  0  0  0
   -3.1200   -1.9820   -1.6950 H   0  0  0  0  0  0  0  0  0  0  0  0
   -0.8670   -1.5530   -0.8130 H   0  0  0  0  0  0  0  0  0  0  0  0
    0.7540   -1.1440   -0.0710 H   0  0  0  0  0  0  0  0  0  0  0  0
   -5.5340   -1.5400   -1.4590 H   0  0  0  0  0  0  0  0  0  0  0  0
    6.4890    0.2450   -1.7130 H   0  0  0  0  0  0  0  0  0  0  0  0
    1.4920   -3.9260   -0.5840 H   0  0  0  0  0  0  0  0  0  0  0  0
  1 22  2  0  0  0  0
  2  3  1  0  0  0  0
  3  4  1  0  0  0  0
  4  5  2  0  0  0  0
  5 23  1  0  0  0  0
  5  6  1  0  0  0  0
  6  7  2  0  0  0  0
  7  8  1  0  0  0  0
  8  9  2  0  0  0  0
  9 10  1  0  0  0  0
 10 20  1  0  0  0  0
 11 20  1  0  0  0  0
 12 13  2  0  0  0  0
 13 14  1  0  0  0  0
 14 15  2  0  0  0  0
 16 21  1  0  0  0  0
 17 24  1  0  0  0  0
 16 17  1  0  0  0  0
 16 25  2  0  0  0  0
 15 21  1  0  0  0  0
 15 18  1  0  0  0  0
 18 19  2  0  0  0  0
 11 12  1  0  0  0  0
 11 26  2  0  0  0  0
  1  2  1  0  0  0  0
  1 27  1  0  0  0  0
  2 10  1  0  0  0  0
  4  9  1  0  0  0  0
 12 19  1  0  0  0  0
 14 24  1  0  0  0  0
  2 28  1  0  0  0  0
  3 29  1  0  0  0  0
  3 30  1  0  0  0  0
  6 31  1  0  0  0  0
  7 32  1  0  0  0  0
  8 33  1  0  0  0  0
 10 34  1  0  0  0  0
 13 35  1  0  0  0  0
 17 36  1  0  0  0  0
 17 37  1  0  0  0  0
 18 38  1  0  0  0  0
 19 39  1  0  0  0  0
 20 40  1  0  0  0  0
 21 41  1  0  0  0  0
 23 42  1  0  0  0  0
 27 43  1  0  0  0  0
M  END
> <OPENEYE_ISO_SMILES>
c1cc2c(c(c1)O)C[C@@H]([C@@H]2NC(=O)c3ccc4c(c3)OCC(=O)N4)C(=O)O

> <OPENEYE_INCHI>
InChI=1S/C19H16N2O6/c22-14-3-1-2-10-11(14)7-12(19(25)26)17(10)21-18(24)9-4-5-13-15(6-9)27-8-16(23)20-13/h1-6,12,17,22H,7-8H2,(H,20,23)(H,21,24)(H,25,26)/t12-,17+/m0/s1

> <OPENEYE_INCHIKEY>
NPDVANGOGQJPGW-YVEFUNNKSA-N

> <FORMULA>
C19H16N2O6

$$$$
