LHR
  -OEChem-02242320033D

 22 23  0     0  0  0  0  0  0999 V2000
    2.1450   -0.6980    0.3620 N   0  0  0  0  0  0  0  0  0  0  0  0
   -2.2450    1.5570    0.2050 N   0  0  0  0  0  0  0  0  0  0  0  0
    0.0610   -1.8520   -0.0510 C   0  0  0  0  0  0  0  0  0  0  0  0
   -1.2930   -1.8420   -0.2060 C   0  0  0  0  0  0  0  0  0  0  0  0
   -2.0000   -0.6380   -0.1010 C   0  0  0  0  0  0  0  0  0  0  0  0
   -3.3710   -0.3000   -0.2110 C   0  0  0  0  0  0  0  0  0  0  0  0
   -1.3050    0.5590    0.1600 C   0  0  0  0  0  0  0  0  0  0  0  0
    4.3980    0.2550   -0.0090 C   0  0  0  0  0  0  0  0  0  0  0  0
    2.8940    0.3310   -0.0810 C   0  0  0  0  0  0  0  0  0  0  0  0
    2.3580    1.3190   -0.5370 O   0  0  0  0  0  0  0  0  0  0  0  0
    0.7550   -0.6690    0.2070 C   0  0  0  0  0  0  0  0  0  0  0  0
   -3.5010    0.9820   -0.0250 N   0  0  0  0  0  0  0  0  0  0  0  0
    0.0780    0.5320    0.3130 C   0  0  0  0  0  0  0  0  0  0  0  0
    2.5710   -1.4610    0.7830 H   0  0  0  0  0  0  0  0  0  0  0  0
   -2.0700    2.4960    0.3710 H   0  0  0  0  0  0  0  0  0  0  0  0
    0.6030   -2.7830   -0.1330 H   0  0  0  0  0  0  0  0  0  0  0  0
   -1.8200   -2.7630   -0.4090 H   0  0  0  0  0  0  0  0  0  0  0  0
   -4.1760   -0.9910   -0.4160 H   0  0  0  0  0  0  0  0  0  0  0  0
    4.7370    0.6570    0.9460 H   0  0  0  0  0  0  0  0  0  0  0  0
    4.7140   -0.7840   -0.0980 H   0  0  0  0  0  0  0  0  0  0  0  0
    4.8300    0.8380   -0.8220 H   0  0  0  0  0  0  0  0  0  0  0  0
    0.6190    1.4450    0.5130 H   0  0  0  0  0  0  0  0  0  0  0  0
  8  9  1  0  0  0  0
  9 10  2  0  0  0  0
  1  9  1  0  0  0  0
  1 11  1  0  0  0  0
  3 11  2  0  0  0  0
 11 13  1  0  0  0  0
  3  4  1  0  0  0  0
  7 13  2  0  0  0  0
  4  5  2  0  0  0  0
  5  7  1  0  0  0  0
  2  7  1  0  0  0  0
  5  6  1  0  0  0  0
  2 12  1  0  0  0  0
  6 12  2  0  0  0  0
  1 14  1  0  0  0  0
  2 15  1  0  0  0  0
  3 16  1  0  0  0  0
  4 17  1  0  0  0  0
  6 18  1  0  0  0  0
  8 19  1  0  0  0  0
  8 20  1  0  0  0  0
  8 21  1  0  0  0  0
 13 22  1  0  0  0  0
M  END
> <OPENEYE_ISO_SMILES>
CC(=O)Nc1ccc2cn[nH]c2c1

> <OPENEYE_INCHI>
InChI=1S/C9H9N3O/c1-6(13)11-8-3-2-7-5-10-12-9(7)4-8/h2-5H,1H3,(H,10,12)(H,11,13)

> <OPENEYE_INCHIKEY>
HOQHKYACTYMRFK-UHFFFAOYSA-N

> <FORMULA>
C9H9N3O

$$$$
