@<TRIPOS>MOLECULE
/home/pku/3cl/gett_pdb/5SRO/5SRO_mol2/ligand/5SRO_RCR.pdb
 41 45 0 0 0
SMALL
GASTEIGER

@<TRIPOS>ATOM
      1  C18      -44.2530  -29.0340    6.5230 C.ar  201  RCR201      0.1204
      2  C16      -46.5020  -29.0830    6.6830 C.ar  201  RCR201      0.1442
      3  C13      -49.0370  -28.7610    4.0140 C.ar  201  RCR201     -0.0508
      4  C12      -50.4140  -28.8260    4.2400 C.ar  201  RCR201     -0.0471
      5  C11      -50.8730  -29.0350    5.5380 C.ar  201  RCR201      0.0199
      6  C10      -50.0650  -29.1790    6.6210 C.ar  201  RCR201     -0.0237
      7  C20      -44.1120  -28.5260    2.4950 C.3   201  RCR201      0.0226
      8  C02      -46.7340  -28.4790   -0.2370 C.2   201  RCR201      0.0807
      9  C03      -45.6530  -29.1050    0.7680 C.3   201  RCR201      0.1727
     10  C04      -46.2660  -29.3040    2.1940 C.3   201  RCR201      0.0534
     11  C06      -45.4900  -28.7920    4.5380 C.ar  201  RCR201      0.1345
     12  C07      -46.6940  -28.8960    5.2730 C.ar  201  RCR201      0.0663
     13  C08      -48.1480  -28.9040    5.0880 C.ar  201  RCR201      0.0123
     14  C09      -48.7150  -29.1090    6.3750 C.ar  201  RCR201      0.0498
     15  C21      -44.4340  -28.1480    1.0810 C.3   201  RCR201      0.0271
     16  C22      -44.6560  -26.6370    1.0160 C.3   201  RCR201     -0.0426
     17  C23      -43.3550  -26.4490    0.2740 C.3   201  RCR201     -0.0517
     18  C24      -43.3500  -27.9740    0.0170 C.3   201  RCR201     -0.0426
     19  F25      -45.2290  -30.2780    0.2730 F     201  RCR201     -0.2333
     20  N05      -45.4070  -28.5240    3.1420 N.pl3 201  RCR201     -0.3105
     21  N15      -47.7120  -29.2220    7.3210 N.ar  201  RCR201     -0.3389
     22  N17      -45.3100  -29.1740    7.3570 N.ar  201  RCR201     -0.2178
     23  N19      -44.2880  -28.8350    5.1890 N.ar  201  RCR201     -0.2200
     24  O01      -47.2630  -27.4060    0.0880 O.co2 201  RCR201     -0.5465
     25  O26      -46.9750  -29.1640   -1.2510 O.co2 201  RCR201     -0.5465
     26 BR14      -52.7720  -29.1540    5.9090 Br    201  RCR201     -0.0502
     27 H181      -43.2460  -29.1050    6.9770 H     201  RCR201      0.1048
     28 H131      -48.6610  -28.6020    3.0060 H     201  RCR201      0.0625
     29 H121      -51.1310  -28.7100    3.4000 H     201  RCR201      0.0629
     30 H101      -50.4620  -29.3310    7.6000 H     201  RCR201      0.0649
     31 H202      -43.5710  -27.7070    3.0170 H     201  RCR201      0.0471
     32 H201      -43.4750  -29.4390    2.5990 H     201  RCR201      0.0471
     33 H042      -46.4750  -30.3640    2.4750 H     201  RCR201      0.0499
     34 H041      -47.1990  -28.7990    2.2050 H     201  RCR201      0.0499
     35 H221      -45.5490  -26.2660    0.4970 H     201  RCR201      0.0272
     36 H222      -44.6880  -26.1490    1.9710 H     201  RCR201      0.0272
     37 H231      -43.3360  -25.7910   -0.6070 H     201  RCR201      0.0266
     38 H232      -42.5810  -26.0290    0.8910 H     201  RCR201      0.0266
     39 H241      -42.3970  -28.4760    0.1970 H     201  RCR201      0.0272
     40 H242      -43.6790  -28.2240   -0.9770 H     201  RCR201      0.0272
     41 H151      -47.8340  -29.3870    8.2920 H     201  RCR201      0.1673
@<TRIPOS>UNITY_ATOM_ATTR
24 1
charge -1
@<TRIPOS>BOND
     1    25     8   ar
     2    40    18    1
     3    37    17    1
     4     8    24   ar
     5     8     9    1
     6    18    39    1
     7    18    17    1
     8    18    15    1
     9    19     9    1
    10    17    38    1
    11    17    16    1
    12    35    16    1
    13     9    15    1
    14     9    10    1
    15    16    15    1
    16    16    36    1
    17    15     7    1
    18    10    34    1
    19    10    33    1
    20    10    20    1
    21     7    32    1
    22     7    31    1
    23     7    20    1
    24    28     3    1
    25    20    11    1
    26    29     4    1
    27     3     4   ar
    28     3    13   ar
    29     4     5   ar
    30    11    23   ar
    31    11    12   ar
    32    13    12   ar
    33    13    14   ar
    34    23     1   ar
    35    12     2   ar
    36     5    26    1
    37     5     6   ar
    38    14     6   ar
    39    14    21   ar
    40     1    27    1
    41     1    22   ar
    42     6    30    1
    43     2    21   ar
    44     2    22   ar
    45    21    41    1
