BME
  -OEChem-02242320023D

 10  9  0     0  0  0  0  0  0999 V2000
    0.4740    0.0000    1.0590 C   0  0  0  0  0  0  0  0  0  0  0  0
   -0.6210    0.0000   -0.0070 C   0  0  0  0  0  0  0  0  0  0  0  0
   -0.1250    0.0000    2.3570 O   0  0  0  0  0  0  0  0  0  0  0  0
    0.1380    0.0000   -1.6540 S   0  0  0  0  0  0  0  0  0  0  0  0
    1.0920    0.8900    0.9450 H   0  0  0  0  0  0  0  0  0  0  0  0
    1.0920   -0.8900    0.9450 H   0  0  0  0  0  0  0  0  0  0  0  0
   -1.2400   -0.8900    0.1060 H   0  0  0  0  0  0  0  0  0  0  0  0
   -1.2400    0.8900    0.1060 H   0  0  0  0  0  0  0  0  0  0  0  0
    0.5980    0.0000    2.9990 H   0  0  0  0  0  0  0  0  0  0  0  0
   -0.9650    0.0000   -2.4220 H   0  0  0  0  0  0  0  0  0  0  0  0
  1  2  1  0  0  0  0
  1  3  1  0  0  0  0
  1  5  1  0  0  0  0
  1  6  1  0  0  0  0
  2  4  1  0  0  0  0
  2  7  1  0  0  0  0
  2  8  1  0  0  0  0
  3  9  1  0  0  0  0
  4 10  1  0  0  0  0
M  END
> <OPENEYE_ISO_SMILES>
C(CS)O

> <OPENEYE_INCHI>
InChI=1S/C2H6OS/c3-1-2-4/h3-4H,1-2H2

> <OPENEYE_INCHIKEY>
DGVVWUTYPXICAM-UHFFFAOYSA-N

> <FORMULA>
C2H6OS

$$$$
