XB1
  -OEChem-02242320043D

 56 58  0     0  0  0  0  0  0999 V2000
    1.1030    0.4810    0.0850 C   0  0  0  0  0  0  0  0  0  0  0  0
    7.2070    0.8570    0.1850 C   0  0  0  0  0  0  0  0  0  0  0  0
    8.5270   -0.8410   -0.9280 C   0  0  0  0  0  0  0  0  0  0  0  0
   10.8160   -0.1330    0.6200 C   0  0  0  0  0  0  0  0  0  0  0  0
    9.6110    0.8020    0.4790 C   0  0  0  0  0  0  0  0  0  0  0  0
   -8.1340   -0.6300   -0.0320 C   0  0  0  0  0  0  0  0  0  0  0  0
   -8.0970   -3.0520    0.1370 C   0  0  0  0  0  0  0  0  0  0  0  0
   -6.0620   -1.7190    0.0890 C   0  0  0  0  0  0  0  0  0  0  0  0
   -5.4010   -0.4170    0.0110 C   0  0  0  0  0  0  0  0  0  0  0  0
   -6.1920    0.7190   -0.0850 C   0  0  0  0  0  0  0  0  0  0  0  0
   -4.0630    1.2930   -0.0800 C   0  0  0  0  0  0  0  0  0  0  0  0
   -1.3480    0.9600   -0.0000 C   0  0  0  0  0  0  0  0  0  0  0  0
    0.0490    1.5850   -0.0150 C   0  0  0  0  0  0  0  0  0  0  0  0
    3.5320    0.2930    0.1480 C   0  0  0  0  0  0  0  0  0  0  0  0
    5.9480   -0.0120    0.2200 C   0  0  0  0  0  0  0  0  0  0  0  0
    9.7410   -1.7590   -0.7730 C   0  0  0  0  0  0  0  0  0  0  0  0
   -8.4050    1.7770   -0.2050 C   0  0  0  0  0  0  0  0  0  0  0  0
   -5.3400    1.7820   -0.1410 N   0  0  0  0  0  0  0  0  0  0  0  0
    2.4400    1.0800    0.0700 N   0  0  0  0  0  0  0  0  0  0  0  0
    4.7620    0.8440    0.1350 N   0  0  0  0  0  0  0  0  0  0  0  0
    8.3960   -0.0000    0.2710 N   0  0  0  0  0  0  0  0  0  0  0  0
   -4.1030   -0.0130    0.0100 N   0  0  0  0  0  0  0  0  0  0  0  0
   -7.5620    0.5840   -0.1040 N   0  0  0  0  0  0  0  0  0  0  0  0
   -7.4120   -1.7590    0.0620 N   0  0  0  0  0  0  0  0  0  0  0  0
   -5.4100   -2.7440    0.1740 O   0  0  0  0  0  0  0  0  0  0  0  0
   10.9070   -0.9640   -0.5410 O   0  0  0  0  0  0  0  0  0  0  0  0
   -9.3480   -0.7090   -0.0470 O   0  0  0  0  0  0  0  0  0  0  0  0
   -2.5950    2.2670   -0.1180 S   0  0  0  0  0  0  0  0  0  0  0  0
    3.3550   -1.4060    0.2640 S   0  0  0  0  0  0  0  0  0  0  0  0
    0.9630   -0.0730    1.0130 H   0  0  0  0  0  0  0  0  0  0  0  0
    1.0000   -0.1970   -0.7620 H   0  0  0  0  0  0  0  0  0  0  0  0
    7.2320    1.4230   -0.7460 H   0  0  0  0  0  0  0  0  0  0  0  0
    7.1950    1.5480    1.0290 H   0  0  0  0  0  0  0  0  0  0  0  0
    8.6600   -0.2070   -1.8050 H   0  0  0  0  0  0  0  0  0  0  0  0
    7.6270   -1.4440   -1.0490 H   0  0  0  0  0  0  0  0  0  0  0  0
   11.7270    0.4580    0.7170 H   0  0  0  0  0  0  0  0  0  0  0  0
   10.6910   -0.7570    1.5050 H   0  0  0  0  0  0  0  0  0  0  0  0
    9.5030    1.3980    1.3850 H   0  0  0  0  0  0  0  0  0  0  0  0
    9.7610    1.4630   -0.3750 H   0  0  0  0  0  0  0  0  0  0  0  0
   -8.2450   -3.4430   -0.8690 H   0  0  0  0  0  0  0  0  0  0  0  0
   -7.4920   -3.7510    0.7140 H   0  0  0  0  0  0  0  0  0  0  0  0
   -9.0650   -2.9220    0.6230 H   0  0  0  0  0  0  0  0  0  0  0  0
   -1.4510    0.2820   -0.8470 H   0  0  0  0  0  0  0  0  0  0  0  0
   -1.4880    0.4070    0.9280 H   0  0  0  0  0  0  0  0  0  0  0  0
    0.1520    2.2640    0.8320 H   0  0  0  0  0  0  0  0  0  0  0  0
    0.1890    2.1390   -0.9430 H   0  0  0  0  0  0  0  0  0  0  0  0
    5.9590   -0.7020   -0.6230 H   0  0  0  0  0  0  0  0  0  0  0  0
    5.9230   -0.5770    1.1520 H   0  0  0  0  0  0  0  0  0  0  0  0
    9.5850   -2.4300    0.0720 H   0  0  0  0  0  0  0  0  0  0  0  0
    9.8740   -2.3450   -1.6830 H   0  0  0  0  0  0  0  0  0  0  0  0
   -8.5930    2.0020   -1.2550 H   0  0  0  0  0  0  0  0  0  0  0  0
   -9.3530    1.5970    0.3030 H   0  0  0  0  0  0  0  0  0  0  0  0
   -7.8980    2.6220    0.2620 H   0  0  0  0  0  0  0  0  0  0  0  0
   -5.5930    2.7160   -0.2120 H   0  0  0  0  0  0  0  0  0  0  0  0
    2.5400    2.0420    0.0050 H   0  0  0  0  0  0  0  0  0  0  0  0
    4.8610    1.8060    0.0700 H   0  0  0  0  0  0  0  0  0  0  0  0
  4 26  1  0  0  0  0
  4  5  1  0  0  0  0
 16 26  1  0  0  0  0
  5 21  1  0  0  0  0
  3 16  1  0  0  0  0
  3 21  1  0  0  0  0
  2 21  1  0  0  0  0
  2 15  1  0  0  0  0
 15 20  1  0  0  0  0
 14 20  1  0  0  0  0
 17 23  1  0  0  0  0
 14 29  2  0  0  0  0
 14 19  1  0  0  0  0
  1 19  1  0  0  0  0
 10 23  1  0  0  0  0
  6 23  1  0  0  0  0
 10 18  1  0  0  0  0
 11 18  1  0  0  0  0
  1 13  1  0  0  0  0
  6 27  2  0  0  0  0
  9 10  2  0  0  0  0
  6 24  1  0  0  0  0
 11 28  1  0  0  0  0
 12 28  1  0  0  0  0
 11 22  2  0  0  0  0
 12 13  1  0  0  0  0
  9 22  1  0  0  0  0
  8  9  1  0  0  0  0
  8 24  1  0  0  0  0
  7 24  1  0  0  0  0
  8 25  2  0  0  0  0
  1 30  1  0  0  0  0
  1 31  1  0  0  0  0
  2 32  1  0  0  0  0
  2 33  1  0  0  0  0
  3 34  1  0  0  0  0
  3 35  1  0  0  0  0
  4 36  1  0  0  0  0
  4 37  1  0  0  0  0
  5 38  1  0  0  0  0
  5 39  1  0  0  0  0
  7 40  1  0  0  0  0
  7 41  1  0  0  0  0
  7 42  1  0  0  0  0
 12 43  1  0  0  0  0
 12 44  1  0  0  0  0
 13 45  1  0  0  0  0
 13 46  1  0  0  0  0
 15 47  1  0  0  0  0
 15 48  1  0  0  0  0
 16 49  1  0  0  0  0
 16 50  1  0  0  0  0
 17 51  1  0  0  0  0
 17 52  1  0  0  0  0
 17 53  1  0  0  0  0
 18 54  1  0  0  0  0
 19 55  1  0  0  0  0
 20 56  1  0  0  0  0
M  END
> <OPENEYE_ISO_SMILES>
Cn1c2c(c(=O)n(c1=O)C)nc([nH]2)SCCCNC(=S)NCCN3CCOCC3

> <OPENEYE_INCHI>
InChI=1S/C17H27N7O3S2/c1-22-13-12(14(25)23(2)17(22)26)20-16(21-13)29-11-3-4-18-15(28)19-5-6-24-7-9-27-10-8-24/h3-11H2,1-2H3,(H,20,21)(H2,18,19,28)

> <OPENEYE_INCHIKEY>
DFOUYIHNRZAXAX-UHFFFAOYSA-N

> <FORMULA>
C17H27N7O3S2

$$$$
