@<TRIPOS>MOLECULE
/home/pku/3cl/gett_pdb/5SOX/5SOX_mol2/ligand/5SOX_WXJ.pdb
 34 36 0 0 0
SMALL
GASTEIGER

@<TRIPOS>ATOM
      1  C15      -49.9150  -33.3240    4.0530 C.ar  201  WXJ201     -0.0187
      2  C17      -49.7260  -35.4930    3.0830 C.ar  201  WXJ201      0.0520
      3  C20      -50.3490  -36.8340    2.7850 C.1   201  WXJ201      0.0992
      4  C02      -48.1590  -28.8950    7.2650 C.2   201  WXJ201      0.3360
      5  C03      -46.8020  -29.2600    7.0520 C.2   201  WXJ201      0.1782
      6  C05      -44.7030  -29.7960    7.0540 C.2   201  WXJ201      0.0839
      7  C07      -46.4040  -29.5090    5.7710 C.3   201  WXJ201      0.1985
      8  C09      -48.5540  -29.0450    5.0070 C.2   201  WXJ201      0.2023
      9  C11      -46.8800  -29.7180    3.4150 C.3   201  WXJ201      0.0515
     10  C12      -47.0160  -31.2650    3.2490 C.3   201  WXJ201      0.1053
     11  C14      -48.6400  -33.0280    3.6260 C.ar  201  WXJ201      0.1207
     12  C16      -50.4650  -34.5580    3.7790 C.ar  201  WXJ201     -0.0409
     13  C18      -48.4450  -35.2010    2.6520 C.ar  201  WXJ201     -0.0409
     14  C19      -47.8970  -33.9620    2.9270 C.ar  201  WXJ201     -0.0187
     15  N01      -48.6460  -28.6200    8.5870 N.pl3 201  WXJ201     -0.2450
     16  N04      -45.7230  -29.4510    7.8480 N.2   201  WXJ201     -0.2329
     17  N06      -45.0920  -29.8430    5.7850 N.pl3 201  WXJ201     -0.3058
     18  N08      -47.3060  -29.3910    4.7660 N.pl3 201  WXJ201     -0.2675
     19  N10      -48.9780  -28.7960    6.2380 N.2   201  WXJ201     -0.0322
     20  N21      -50.8290  -37.8190    2.5690 N.1   201  WXJ201     -0.1909
     21  O13      -48.1770  -31.7430    3.9210 O.3   201  WXJ201     -0.4904
     22 H151      -50.3980  -32.6920    4.5270 H     201  WXJ201      0.0654
     23 H051      -43.8420  -29.9840    7.3260 H     201  WXJ201      0.0998
     24 H091      -49.1340  -28.9910    4.2870 H     201  WXJ201      0.1307
     25 H111      -45.9490  -29.4420    3.2710 H     201  WXJ201      0.0499
     26 H112      -47.4460  -29.2580    2.7710 H     201  WXJ201      0.0499
     27 H121      -47.0970  -31.4800    2.3000 H     201  WXJ201      0.0712
     28 H122      -46.2130  -31.7040    3.5940 H     201  WXJ201      0.0712
     29 H161      -51.3330  -34.7480    4.0540 H     201  WXJ201      0.0631
     30 H181      -47.9580  -35.8200    2.1680 H     201  WXJ201      0.0631
     31 H191      -47.0340  -33.7540    2.6500 H     201  WXJ201      0.0654
     32 H012      -48.7150  -27.8120    8.8450 H     201  WXJ201      0.2885
     33 H011      -48.8700  -29.2720    9.0980 H     201  WXJ201      0.2885
     34 H061      -44.5970  -30.0510    5.1050 H     201  WXJ201      0.1494
@<TRIPOS>BOND
     1    30    13    1
     2    27    10    1
     3    20     3    3
     4    31    14    1
     5    13    14   ar
     6    13     2   ar
     7    26     9    1
     8     3     2    1
     9    14    11   ar
    10     2    12   ar
    11    10     9    1
    12    10    28    1
    13    10    21    1
    14    25     9    1
    15     9    18    1
    16    11    21    1
    17    11     1   ar
    18    12     1   ar
    19    12    29    1
    20     1    22    1
    21    24     8    1
    22    18     8    1
    23    18     7    1
    24     8    19    2
    25    34    17    1
    26     7    17    1
    27     7     5    1
    28    17     6    1
    29    19     4    1
    30     5     4    2
    31     5    16    1
    32     6    23    1
    33     6    16    2
    34     4    15    1
    35    15    32    1
    36    15    33    1
