@<TRIPOS>MOLECULE
/home/pku/3cl/gett_pdb/7T3Y/7T3Y_mol2/ligand/7T3Y_F5L.pdb
 36 38 0 0 0
SMALL
GASTEIGER

@<TRIPOS>ATOM
      1  C02      -13.1460  -12.3170   -8.7860 C.2   401  F5L401      0.4214
      2  C04      -11.9670  -10.0380   -8.6180 C.3   401  F5L401      0.1761
      3  C05      -10.5070   -9.4730   -8.8150 C.3   401  F5L401      0.0312
      4  C06       -9.4710  -10.0490   -7.7830 C.3   401  F5L401      0.0022
      5  C07       -8.0410   -9.5590   -8.0650 C.3   401  F5L401      0.0001
      6  C08       -9.8760   -9.7630   -6.3120 C.3   401  F5L401      0.0001
      7  C09      -12.9420   -9.2820   -9.6080 C.2   401  F5L401      0.2614
      8  C11      -15.0180   -7.8910  -10.2560 C.3   401  F5L401      0.1287
      9  C12      -16.5110   -8.2310   -9.8680 C.3   401  F5L401      0.0335
     10  C13      -16.7980   -9.7550   -9.8540 C.3   401  F5L401      0.0818
     11  C14      -18.1160  -10.0680   -9.1640 C.2   401  F5L401      0.2410
     12  C16      -18.1630  -11.2940  -11.1510 C.3   401  F5L401      0.1156
     13  C17      -17.0410  -10.2610  -11.2890 C.3   401  F5L401      0.0326
     14  C19      -14.8390   -6.3260  -10.2540 C.3   401  F5L401      0.2036
     15  C23      -14.0810  -14.5840   -8.7970 C.3   401  F5L401      0.1705
     16  C24      -13.4390  -16.0280   -8.6800 C.3   401  F5L401      0.0439
     17  C25      -14.6740  -16.7110   -9.4160 C.3   401  F5L401      0.0102
     18  C26      -14.0700  -17.7140  -10.4110 C.3   401  F5L401      0.0218
     19  C27      -15.0960  -18.6010  -11.1950 C.3   401  F5L401      0.0934
     20  C29      -16.3430  -20.7180  -10.2480 C.2   401  F5L401      0.2251
     21  C30      -15.6980  -21.8230  -11.1720 C.3   401  F5L401      0.0767
     22  C31      -16.4950  -22.0990  -12.4780 C.3   401  F5L401      0.0096
     23  C32      -15.4590  -23.1490  -10.4220 C.3   401  F5L401      0.0096
     24  C34      -16.7370  -18.3060   -9.3650 C.3   401  F5L401      0.0934
     25  C35      -15.7770  -17.3460   -8.5740 C.3   401  F5L401      0.0218
     26  C36      -15.0620  -15.2360   -9.8440 C.3   401  F5L401      0.0439
     27  N03      -11.9630  -11.5270   -8.8200 N.am  401  F5L401     -0.1611
     28  N10      -14.0800   -8.4950   -9.2600 N.am  401  F5L401     -0.2030
     29  N15      -18.9300  -10.9760   -9.9120 N.am  401  F5L401     -0.2054
     30  N28      -16.0520  -19.3090  -10.2730 N.am  401  F5L401     -0.2795
     31  O01      -14.1820  -11.8950   -8.2330 O.2   401  F5L401     -0.2246
     32  O18      -18.5080   -9.6410   -8.0670 O.2   401  F5L401     -0.2734
     33  O20      -13.5500   -6.1070  -10.8820 O.3   401  F5L401     -0.2185
     34  O21      -12.7580   -9.4670  -10.8400 O.2   401  F5L401     -0.2715
     35  O22      -13.2340  -13.5920   -9.3950 O.3   401  F5L401     -0.4373
     36  O33      -17.1820  -21.1300   -9.4170 O.2   401  F5L401     -0.2749
@<TRIPOS>BOND
     1    22    21    1
     2    13    12    1
     3    13    10    1
     4    19    18    1
     5    19    30    1
     6    21    23    1
     7    21    20    1
     8    12    29    1
     9    33    14    1
    10    34     7    2
    11    18    17    1
    12    30    20   am
    13    30    24    1
    14     8    14    1
    15     8     9    1
    16     8    28    1
    17    20    36    2
    18    29    11   am
    19     9    10    1
    20    10    11    1
    21    26    17    1
    22    26    15    1
    23     7    28   am
    24     7     2    1
    25    17    16    1
    26    17    25    1
    27    35    15    1
    28    35     1    1
    29    24    25    1
    30    11    32    2
    31    27     1   am
    32    27     2    1
    33     3     2    1
    34     3     4    1
    35    15    16    1
    36     1    31    2
    37     5     4    1
    38     4     6    1
