7V2
  -OEChem-02242320013D

 79 80  0     1  0  0  0  0  0999 V2000
    9.8070   -0.7790    1.9840 C   0  0  0  0  0  0  0  0  0  0  0  0
    1.8550   -0.1220   -1.2070 C   0  0  2  0  0  0  0  0  0  0  0  0
    0.6480   -0.3060   -0.3240 C   0  0  0  0  0  0  0  0  0  0  0  0
   -2.9340    2.8690    0.0990 C   0  0  0  0  0  0  0  0  0  0  0  0
   -1.6810    0.1500    0.2300 C   0  0  2  0  0  0  0  0  0  0  0  0
   -2.9520    0.3990   -0.5400 C   0  0  0  0  0  0  0  0  0  0  0  0
   -5.3810    0.5500   -0.6670 C   0  0  1  0  0  0  0  0  0  0  0  0
   -6.5400   -0.1840    0.0110 C   0  0  0  0  0  0  0  0  0  0  0  0
    9.4980   -1.5150    0.8550 C   0  0  0  0  0  0  0  0  0  0  0  0
   -6.3050   -1.6940   -0.0720 C   0  0  2  0  0  0  0  0  0  0  0  0
   -7.4790   -2.4600    0.5800 C   0  0  0  0  0  0  0  0  0  0  0  0
   -6.9590   -2.6680    2.0200 C   0  0  0  0  0  0  0  0  0  0  0  0
   -5.1000   -2.0880    0.7530 C   0  0  0  0  0  0  0  0  0  0  0  0
    8.4590   -1.1180    0.0340 C   0  0  0  0  0  0  0  0  0  0  0  0
    1.7530   -1.0610   -2.4110 C   0  0  0  0  0  0  0  0  0  0  0  0
    1.5870   -2.5010   -1.9230 C   0  0  0  0  0  0  0  0  0  0  0  0
    0.5450   -0.6680   -3.2630 C   0  0  0  0  0  0  0  0  0  0  0  0
   -1.5360    1.2040    1.3300 C   0  0  0  0  0  0  0  0  0  0  0  0
   -1.5550    2.6000    0.7050 C   0  0  0  0  0  0  0  0  0  0  0  0
   -0.4910    2.6820   -0.3930 C   0  0  0  0  0  0  0  0  0  0  0  0
   -1.2580    3.6450    1.7820 C   0  0  0  0  0  0  0  0  0  0  0  0
    7.7280    0.0140    0.3420 C   0  0  0  0  0  0  0  0  0  0  0  0
    8.0360    0.7500    1.4710 C   0  0  0  0  0  0  0  0  0  0  0  0
    9.0760    0.3530    2.2920 C   0  0  0  0  0  0  0  0  0  0  0  0
    6.5960    0.4480   -0.5530 C   0  0  0  0  0  0  0  0  0  0  0  0
   -5.6750    2.0510   -0.6940 C   0  0  0  0  0  0  0  0  0  0  0  0
    4.2470    0.1110   -0.8070 C   0  0  0  0  0  0  0  0  0  0  0  0
    3.0680   -0.4330   -0.4470 N   0  0  0  0  0  0  0  0  0  0  0  0
   -0.5350    0.2330   -0.6800 N   0  0  0  0  0  0  0  0  0  0  0  0
   -4.1450    0.3080    0.0820 N   0  0  0  0  0  0  0  0  0  0  0  0
   -5.4950   -2.6360    1.9160 N   0  0  0  0  0  0  0  0  0  0  0  0
   -3.9460   -1.9340    0.4150 O   0  0  0  0  0  0  0  0  0  0  0  0
    4.3040    0.8600   -1.7630 O   0  0  0  0  0  0  0  0  0  0  0  0
    0.7410   -0.9380    0.7060 O   0  0  0  0  0  0  0  0  0  0  0  0
   -2.9020    0.6810   -1.7180 O   0  0  0  0  0  0  0  0  0  0  0  0
    5.3620   -0.1740   -0.1090 O   0  0  0  0  0  0  0  0  0  0  0  0
   -5.9410    2.5090    0.6330 O   0  0  0  0  0  0  0  0  0  0  0  0
   10.6150   -1.0920    2.6280 H   0  0  0  0  0  0  0  0  0  0  0  0
    1.8980    0.9100   -1.5540 H   0  0  0  0  0  0  0  0  0  0  0  0
   -3.7060    2.5430    0.7950 H   0  0  0  0  0  0  0  0  0  0  0  0
   -3.0450    3.9370   -0.0920 H   0  0  0  0  0  0  0  0  0  0  0  0
   -3.0330    2.3200   -0.8370 H   0  0  0  0  0  0  0  0  0  0  0  0
   -1.7170   -0.8420    0.6790 H   0  0  0  0  0  0  0  0  0  0  0  0
   -5.2660    0.1840   -1.6870 H   0  0  0  0  0  0  0  0  0  0  0  0
   -6.5980    0.1170    1.0570 H   0  0  0  0  0  0  0  0  0  0  0  0
   -7.4730    0.0670   -0.4920 H   0  0  0  0  0  0  0  0  0  0  0  0
   10.0680   -2.4000    0.6140 H   0  0  0  0  0  0  0  0  0  0  0  0
   -6.1750   -2.0020   -1.1090 H   0  0  0  0  0  0  0  0  0  0  0  0
   -8.3880   -1.8590    0.5770 H   0  0  0  0  0  0  0  0  0  0  0  0
   -7.6440   -3.4170    0.0840 H   0  0  0  0  0  0  0  0  0  0  0  0
   -7.3080   -1.8630    2.6670 H   0  0  0  0  0  0  0  0  0  0  0  0
   -7.2880   -3.6330    2.4050 H   0  0  0  0  0  0  0  0  0  0  0  0
    8.2180   -1.6920   -0.8480 H   0  0  0  0  0  0  0  0  0  0  0  0
    2.6610   -0.9830   -3.0100 H   0  0  0  0  0  0  0  0  0  0  0  0
    0.6790   -2.5790   -1.3240 H   0  0  0  0  0  0  0  0  0  0  0  0
    1.5140   -3.1700   -2.7800 H   0  0  0  0  0  0  0  0  0  0  0  0
    2.4480   -2.7810   -1.3160 H   0  0  0  0  0  0  0  0  0  0  0  0
   -0.3620   -0.7380   -2.6620 H   0  0  0  0  0  0  0  0  0  0  0  0
    0.6670    0.3550   -3.6180 H   0  0  0  0  0  0  0  0  0  0  0  0
    0.4670   -1.3420   -4.1170 H   0  0  0  0  0  0  0  0  0  0  0  0
   -2.3630    1.1100    2.0340 H   0  0  0  0  0  0  0  0  0  0  0  0
   -0.5930    1.0540    1.8550 H   0  0  0  0  0  0  0  0  0  0  0  0
   -0.2700    3.7270   -0.6070 H   0  0  0  0  0  0  0  0  0  0  0  0
    0.4160    2.1800   -0.0570 H   0  0  0  0  0  0  0  0  0  0  0  0
   -0.8620    2.1970   -1.2950 H   0  0  0  0  0  0  0  0  0  0  0  0
   -2.0160    3.5870    2.5630 H   0  0  0  0  0  0  0  0  0  0  0  0
   -0.2750    3.4540    2.2130 H   0  0  0  0  0  0  0  0  0  0  0  0
   -1.2710    4.6400    1.3360 H   0  0  0  0  0  0  0  0  0  0  0  0
    7.4660    1.6340    1.7120 H   0  0  0  0  0  0  0  0  0  0  0  0
    9.3150    0.9260    3.1760 H   0  0  0  0  0  0  0  0  0  0  0  0
    6.4930    1.5320   -0.5100 H   0  0  0  0  0  0  0  0  0  0  0  0
    6.8070    0.1440   -1.5790 H   0  0  0  0  0  0  0  0  0  0  0  0
   -4.8130    2.5830   -1.0960 H   0  0  0  0  0  0  0  0  0  0  0  0
   -6.5440    2.2400   -1.3240 H   0  0  0  0  0  0  0  0  0  0  0  0
    3.0230   -1.0310    0.3160 H   0  0  0  0  0  0  0  0  0  0  0  0
   -0.6280    0.6760   -1.5380 H   0  0  0  0  0  0  0  0  0  0  0  0
   -4.1850    0.0830    1.0240 H   0  0  0  0  0  0  0  0  0  0  0  0
   -4.8900   -2.9670    2.5980 H   0  0  0  0  0  0  0  0  0  0  0  0
   -6.1360    3.4540    0.6910 H   0  0  0  0  0  0  0  0  0  0  0  0
  1  9  2  0  0  0  0
  9 14  1  0  0  0  0
  1 24  1  0  0  0  0
 15 16  1  0  0  0  0
 14 22  2  0  0  0  0
 23 24  2  0  0  0  0
 27 33  2  0  0  0  0
 15 17  1  0  0  0  0
  4 19  1  0  0  0  0
  6 35  2  0  0  0  0
  2 15  1  0  0  0  0
  2  3  1  0  0  0  0
  2 28  1  0  0  0  0
 22 23  1  0  0  0  0
 22 25  1  0  0  0  0
  3 29  1  0  0  0  0
  5 29  1  0  0  0  0
 18 19  1  0  0  0  0
  5 18  1  0  0  0  0
 19 21  1  0  0  0  0
 27 28  1  0  0  0  0
 27 36  1  0  0  0  0
 19 20  1  0  0  0  0
  3 34  2  0  0  0  0
  5  6  1  0  0  0  0
  6 30  1  0  0  0  0
 25 36  1  0  0  0  0
 11 12  1  0  0  0  0
 10 11  1  0  0  0  0
 12 31  1  0  0  0  0
  7 30  1  0  0  0  0
  7 26  1  0  0  0  0
  7  8  1  0  0  0  0
 26 37  1  0  0  0  0
  8 10  1  0  0  0  0
 10 13  1  0  0  0  0
 13 31  1  0  0  0  0
 13 32  2  0  0  0  0
  1 38  1  0  0  0  0
  2 39  1  0  0  0  0
  4 40  1  0  0  0  0
  4 41  1  0  0  0  0
  4 42  1  0  0  0  0
  5 43  1  0  0  0  0
  7 44  1  0  0  0  0
  8 45  1  0  0  0  0
  8 46  1  0  0  0  0
  9 47  1  0  0  0  0
 10 48  1  0  0  0  0
 11 49  1  0  0  0  0
 11 50  1  0  0  0  0
 12 51  1  0  0  0  0
 12 52  1  0  0  0  0
 14 53  1  0  0  0  0
 15 54  1  0  0  0  0
 16 55  1  0  0  0  0
 16 56  1  0  0  0  0
 16 57  1  0  0  0  0
 17 58  1  0  0  0  0
 17 59  1  0  0  0  0
 17 60  1  0  0  0  0
 18 61  1  0  0  0  0
 18 62  1  0  0  0  0
 20 63  1  0  0  0  0
 20 64  1  0  0  0  0
 20 65  1  0  0  0  0
 21 66  1  0  0  0  0
 21 67  1  0  0  0  0
 21 68  1  0  0  0  0
 23 69  1  0  0  0  0
 24 70  1  0  0  0  0
 25 71  1  0  0  0  0
 25 72  1  0  0  0  0
 26 73  1  0  0  0  0
 26 74  1  0  0  0  0
 28 75  1  0  0  0  0
 29 76  1  0  0  0  0
 30 77  1  0  0  0  0
 31 78  1  0  0  0  0
 37 79  1  0  0  0  0
M  END
> <OPENEYE_ISO_SMILES>
CC(C)[C@@H](C(=O)N[C@@H](CC(C)(C)C)C(=O)N[C@@H](C[C@@H]1CCNC1=O)CO)NC(=O)OCc2ccccc2

> <OPENEYE_INCHI>
InChI=1S/C27H42N4O6/c1-17(2)22(31-26(36)37-16-18-9-7-6-8-10-18)25(35)30-21(14-27(3,4)5)24(34)29-20(15-32)13-19-11-12-28-23(19)33/h6-10,17,19-22,32H,11-16H2,1-5H3,(H,28,33)(H,29,34)(H,30,35)(H,31,36)/t19-,20-,21-,22-/m0/s1

> <OPENEYE_INCHIKEY>
NMNHQNPORDVBGU-CMOCDZPBSA-N

> <FORMULA>
C27H42N4O6

$$$$
