Y6D
  -OEChem-02242320043D

 50 54  0     0  0  0  0  0  0999 V2000
   -5.1050   -1.8920    0.7730 C   0  0  0  0  0  0  0  0  0  0  0  0
   -0.4400    1.8850   -1.5160 C   0  0  0  0  0  0  0  0  0  0  0  0
    1.2000   -1.0180    0.2000 C   0  0  0  0  0  0  0  0  0  0  0  0
    2.4630   -1.5420    0.3800 C   0  0  0  0  0  0  0  0  0  0  0  0
    3.4060    0.3400   -0.7990 C   0  0  0  0  0  0  0  0  0  0  0  0
    2.1420    0.8630   -0.9710 C   0  0  0  0  0  0  0  0  0  0  0  0
   -1.1350   -0.7630    0.7390 O   0  0  0  0  0  0  0  0  0  0  0  0
   -1.3060    0.1360   -0.0570 C   0  0  0  0  0  0  0  0  0  0  0  0
   -2.7010    0.6120   -0.3680 C   0  0  0  0  0  0  0  0  0  0  0  0
   -3.6740   -0.2610    0.2940 N   0  0  0  0  0  0  0  0  0  0  0  0
   -4.2420   -1.4010   -0.2220 C   0  0  0  0  0  0  0  0  0  0  0  0
   -4.1230   -2.0760   -1.4320 C   0  0  0  0  0  0  0  0  0  0  0  0
   -4.8520   -3.2250   -1.6460 C   0  0  0  0  0  0  0  0  0  0  0  0
   -5.7040   -3.7110   -0.6630 C   0  0  0  0  0  0  0  0  0  0  0  0
   -5.8390   -3.0600    0.5290 C   0  0  0  0  0  0  0  0  0  0  0  0
   -5.0300   -1.0560    1.8280 N   0  0  0  0  0  0  0  0  0  0  0  0
   -4.2070   -0.0980    1.5820 N   0  0  0  0  0  0  0  0  0  0  0  0
   -0.2470    0.7100   -0.6630 N   0  0  0  0  0  0  0  0  0  0  0  0
   -0.3840    3.1330   -0.6730 C   0  0  0  0  0  0  0  0  0  0  0  0
    0.7640    3.7270   -0.3450 C   0  0  0  0  0  0  0  0  0  0  0  0
    0.4350    5.1460    0.6400 S   0  0  0  0  0  0  0  0  0  0  0  0
   -1.2960    4.8450    0.5480 C   0  0  0  0  0  0  0  0  0  0  0  0
   -1.5210    3.7530   -0.1850 C   0  0  0  0  0  0  0  0  0  0  0  0
    1.0350    0.1840   -0.4770 C   0  0  0  0  0  0  0  0  0  0  0  0
    3.5740   -0.8650   -0.1190 C   0  0  0  0  0  0  0  0  0  0  0  0
    4.9340   -1.4260    0.0730 C   0  0  0  0  0  0  0  0  0  0  0  0
    6.0560   -0.7530   -0.4180 C   0  0  0  0  0  0  0  0  0  0  0  0
    7.3030   -1.3180   -0.2130 C   0  0  0  0  0  0  0  0  0  0  0  0
    7.3970   -2.5190    0.4660 C   0  0  0  0  0  0  0  0  0  0  0  0
    6.3200   -3.1320    0.9180 N   0  0  0  0  0  0  0  0  0  0  0  0
    5.1140   -2.6300    0.7510 C   0  0  0  0  0  0  0  0  0  0  0  0
    0.3470    1.9200   -2.2700 H   0  0  0  0  0  0  0  0  0  0  0  0
   -1.4110    1.8220   -2.0080 H   0  0  0  0  0  0  0  0  0  0  0  0
    0.3380   -1.5450    0.5830 H   0  0  0  0  0  0  0  0  0  0  0  0
    2.5900   -2.4760    0.9070 H   0  0  0  0  0  0  0  0  0  0  0  0
    4.2660    0.8680   -1.1830 H   0  0  0  0  0  0  0  0  0  0  0  0
    2.0120    1.8020   -1.4900 H   0  0  0  0  0  0  0  0  0  0  0  0
   -2.8260    1.6330   -0.0090 H   0  0  0  0  0  0  0  0  0  0  0  0
   -2.8630    0.5830   -1.4460 H   0  0  0  0  0  0  0  0  0  0  0  0
   -3.4620   -1.7020   -2.2000 H   0  0  0  0  0  0  0  0  0  0  0  0
   -4.7580   -3.7530   -2.5830 H   0  0  0  0  0  0  0  0  0  0  0  0
   -6.2700   -4.6130   -0.8450 H   0  0  0  0  0  0  0  0  0  0  0  0
   -6.5050   -3.4480    1.2850 H   0  0  0  0  0  0  0  0  0  0  0  0
    1.7470    3.3870   -0.6390 H   0  0  0  0  0  0  0  0  0  0  0  0
   -2.0590    5.4530    1.0110 H   0  0  0  0  0  0  0  0  0  0  0  0
   -2.5160    3.3790   -0.3800 H   0  0  0  0  0  0  0  0  0  0  0  0
    5.9530    0.1840   -0.9450 H   0  0  0  0  0  0  0  0  0  0  0  0
    8.1920   -0.8260   -0.5780 H   0  0  0  0  0  0  0  0  0  0  0  0
    8.3680   -2.9630    0.6280 H   0  0  0  0  0  0  0  0  0  0  0  0
    4.2560   -3.1580    1.1400 H   0  0  0  0  0  0  0  0  0  0  0  0
 13 14  2  0  0  0  0
 12 13  1  0  0  0  0
 14 15  1  0  0  0  0
 27 28  2  0  0  0  0
 28 29  1  0  0  0  0
 11 12  2  0  0  0  0
  1 15  2  0  0  0  0
 26 27  1  0  0  0  0
 29 30  2  0  0  0  0
  1 11  1  0  0  0  0
 10 11  1  0  0  0  0
  1 16  1  0  0  0  0
 25 26  1  0  0  0  0
 26 31  2  0  0  0  0
  4 25  2  0  0  0  0
  3  4  1  0  0  0  0
 30 31  1  0  0  0  0
  9 10  1  0  0  0  0
 10 17  1  0  0  0  0
 16 17  2  0  0  0  0
  5 25  1  0  0  0  0
  3 24  2  0  0  0  0
  8  9  1  0  0  0  0
  5  6  2  0  0  0  0
  6 24  1  0  0  0  0
 18 24  1  0  0  0  0
  7  8  2  0  0  0  0
  8 18  1  0  0  0  0
  2 18  1  0  0  0  0
  2 19  1  0  0  0  0
 19 20  2  0  0  0  0
 19 23  1  0  0  0  0
 20 21  1  0  0  0  0
 22 23  2  0  0  0  0
 21 22  1  0  0  0  0
  2 32  1  0  0  0  0
  2 33  1  0  0  0  0
  3 34  1  0  0  0  0
  4 35  1  0  0  0  0
  5 36  1  0  0  0  0
  6 37  1  0  0  0  0
  9 38  1  0  0  0  0
  9 39  1  0  0  0  0
 12 40  1  0  0  0  0
 13 41  1  0  0  0  0
 14 42  1  0  0  0  0
 15 43  1  0  0  0  0
 20 44  1  0  0  0  0
 22 45  1  0  0  0  0
 23 46  1  0  0  0  0
 27 47  1  0  0  0  0
 28 48  1  0  0  0  0
 29 49  1  0  0  0  0
 31 50  1  0  0  0  0
M  END
> <OPENEYE_ISO_SMILES>
c1ccc2c(c1)nnn2CC(=O)N(Cc3ccsc3)c4ccc(cc4)c5cccnc5

> <OPENEYE_INCHI>
InChI=1S/C24H19N5OS/c30-24(16-29-23-6-2-1-5-22(23)26-27-29)28(15-18-11-13-31-17-18)21-9-7-19(8-10-21)20-4-3-12-25-14-20/h1-14,17H,15-16H2

> <OPENEYE_INCHIKEY>
LHBIUOYHJIXRST-UHFFFAOYSA-N

> <FORMULA>
C24H19N5OS

$$$$
