BO3
  -OEChem-02242320023D

  7  6  0     0  0  0  0  0  0999 V2000
   -0.0210    0.0000   -0.0210 B   0  0  0  0  0  0  0  0  0  0  0  0
   -1.0210    0.0000    0.9870 O   0  0  0  0  0  0  0  0  0  0  0  0
   -0.3950    0.0000   -1.3910 O   0  0  0  0  0  0  0  0  0  0  0  0
    1.3510    0.0000    0.3400 O   0  0  0  0  0  0  0  0  0  0  0  0
   -0.5600    0.0000    1.8370 H   0  0  0  0  0  0  0  0  0  0  0  0
    0.4240    0.0000   -1.9040 H   0  0  0  0  0  0  0  0  0  0  0  0
    1.3860    0.0000    1.3060 H   0  0  0  0  0  0  0  0  0  0  0  0
  1  2  1  0  0  0  0
  1  3  1  0  0  0  0
  1  4  1  0  0  0  0
  2  5  1  0  0  0  0
  3  6  1  0  0  0  0
  4  7  1  0  0  0  0
M  END
> <OPENEYE_ISO_SMILES>
B(O)(O)O

> <OPENEYE_INCHI>
InChI=1S/BH3O3/c2-1(3)4/h2-4H

> <OPENEYE_INCHIKEY>
KGBXLFKZBHKPEV-UHFFFAOYSA-N

> <FORMULA>
BH3O3

$$$$
