Y54
  -OEChem-02242320043D

 72 76  0     1  0  0  0  0  0999 V2000
    1.3120    1.3890    2.7700 C   0  0  0  0  0  0  0  0  0  0  0  0
    1.3650    0.9530    1.3040 C   0  0  1  0  0  0  0  0  0  0  0  0
    2.7620    0.8010    0.8900 N   0  0  0  0  0  0  0  0  0  0  0  0
    3.4580    1.8720    0.4620 C   0  0  0  0  0  0  0  0  0  0  0  0
    4.8680    1.7190    0.0440 C   0  0  0  0  0  0  0  0  0  0  0  0
    5.5530    2.7980   -0.5170 C   0  0  0  0  0  0  0  0  0  0  0  0
    4.8560    4.1210   -0.6980 C   0  0  0  0  0  0  0  0  0  0  0  0
    6.8700    2.6520   -0.9060 C   0  0  0  0  0  0  0  0  0  0  0  0
    7.5140    1.4410   -0.7420 C   0  0  0  0  0  0  0  0  0  0  0  0
    6.8400    0.3600   -0.1850 C   0  0  0  0  0  0  0  0  0  0  0  0
    7.4950   -0.8630   -0.0220 N   0  0  0  0  0  0  0  0  0  0  0  0
    8.8930   -1.0070   -0.4370 C   0  0  0  0  0  0  0  0  0  0  0  0
    9.6380   -2.1480    0.2780 C   0  0  0  0  0  0  0  0  0  0  0  0
   10.2260   -2.4600   -1.0430 N   0  0  0  0  0  0  0  0  0  0  0  0
    9.0750   -1.8250   -1.7280 C   0  0  0  0  0  0  0  0  0  0  0  0
    5.5190    0.4970    0.2140 C   0  0  0  0  0  0  0  0  0  0  0  0
    2.9270    2.9650    0.4190 O   0  0  0  0  0  0  0  0  0  0  0  0
    0.6480   -0.3630    1.1460 C   0  0  0  0  0  0  0  0  0  0  0  0
    1.2850   -1.5420    1.4910 C   0  0  0  0  0  0  0  0  0  0  0  0
    0.6340   -2.7550    1.3480 C   0  0  0  0  0  0  0  0  0  0  0  0
   -0.6560   -2.7950    0.8610 C   0  0  0  0  0  0  0  0  0  0  0  0
   -1.3050   -1.6100    0.5120 C   0  0  0  0  0  0  0  0  0  0  0  0
   -2.6880   -1.6460   -0.0090 C   0  0  0  0  0  0  0  0  0  0  0  0
   -3.4240   -2.7610   -0.1860 C   0  0  0  0  0  0  0  0  0  0  0  0
   -4.6910   -2.5420   -0.6880 C   0  0  0  0  0  0  0  0  0  0  0  0
   -6.3090   -0.7670   -1.4650 C   0  0  0  0  0  0  0  0  0  0  0  0
   -8.5220   -0.0030   -0.8470 C   0  0  2  0  0  0  0  0  0  0  0  0
   -8.4980    1.5310   -1.0100 C   0  0  0  0  0  0  0  0  0  0  0  0
  -10.7040    0.7960   -0.1710 C   0  0  2  0  0  0  0  0  0  0  0  0
   -9.6320   -0.2590    0.2020 C   0  0  0  0  0  0  0  0  0  0  0  0
   -4.9940   -1.2620   -0.9200 C   0  0  0  0  0  0  0  0  0  0  0  0
   -7.2260   -0.4880   -0.3520 N   0  0  0  0  0  0  0  0  0  0  0  0
   -9.8840    2.0410   -0.5810 C   0  0  0  0  0  0  0  0  0  0  0  0
  -11.5310    1.0900    0.9570 O   0  0  0  0  0  0  0  0  0  0  0  0
   -3.6300   -0.2390   -0.4880 S   0  0  0  0  0  0  0  0  0  0  0  0
   -0.6450   -0.3890    0.6640 C   0  0  0  0  0  0  0  0  0  0  0  0
    1.8300    2.3410    2.8840 H   0  0  0  0  0  0  0  0  0  0  0  0
    0.2720    1.5020    3.0780 H   0  0  0  0  0  0  0  0  0  0  0  0
    1.7950    0.6350    3.3910 H   0  0  0  0  0  0  0  0  0  0  0  0
    0.8810    1.7070    0.6830 H   0  0  0  0  0  0  0  0  0  0  0  0
    3.1850   -0.0710    0.9240 H   0  0  0  0  0  0  0  0  0  0  0  0
    4.8960    4.6830    0.2350 H   0  0  0  0  0  0  0  0  0  0  0  0
    5.3520    4.6890   -1.4860 H   0  0  0  0  0  0  0  0  0  0  0  0
    3.8160    3.9490   -0.9750 H   0  0  0  0  0  0  0  0  0  0  0  0
    7.3980    3.4880   -1.3400 H   0  0  0  0  0  0  0  0  0  0  0  0
    8.5440    1.3330   -1.0480 H   0  0  0  0  0  0  0  0  0  0  0  0
    7.0250   -1.6170    0.3670 H   0  0  0  0  0  0  0  0  0  0  0  0
    9.4350   -0.0610   -0.4380 H   0  0  0  0  0  0  0  0  0  0  0  0
   10.3660   -1.8040    1.0130 H   0  0  0  0  0  0  0  0  0  0  0  0
    8.9810   -2.9280    0.6640 H   0  0  0  0  0  0  0  0  0  0  0  0
   10.2400   -3.4550   -1.2080 H   0  0  0  0  0  0  0  0  0  0  0  0
    8.2520   -2.5110   -1.9320 H   0  0  0  0  0  0  0  0  0  0  0  0
    9.3550   -1.2270   -2.5950 H   0  0  0  0  0  0  0  0  0  0  0  0
    4.9950   -0.3400    0.6510 H   0  0  0  0  0  0  0  0  0  0  0  0
    2.2950   -1.5160    1.8720 H   0  0  0  0  0  0  0  0  0  0  0  0
    1.1370   -3.6710    1.6180 H   0  0  0  0  0  0  0  0  0  0  0  0
   -1.1630   -3.7430    0.7500 H   0  0  0  0  0  0  0  0  0  0  0  0
   -3.0520   -3.7480    0.0450 H   0  0  0  0  0  0  0  0  0  0  0  0
   -5.3860   -3.3460   -0.8780 H   0  0  0  0  0  0  0  0  0  0  0  0
   -6.1450    0.1450   -2.0380 H   0  0  0  0  0  0  0  0  0  0  0  0
   -6.7440   -1.5290   -2.1120 H   0  0  0  0  0  0  0  0  0  0  0  0
   -8.7720   -0.4840   -1.7920 H   0  0  0  0  0  0  0  0  0  0  0  0
   -7.7270    1.9620   -0.3720 H   0  0  0  0  0  0  0  0  0  0  0  0
   -8.3090    1.7920   -2.0520 H   0  0  0  0  0  0  0  0  0  0  0  0
  -11.3110    0.4460   -1.0060 H   0  0  0  0  0  0  0  0  0  0  0  0
  -10.0330   -1.2680    0.1050 H   0  0  0  0  0  0  0  0  0  0  0  0
   -9.2560   -0.0870    1.2110 H   0  0  0  0  0  0  0  0  0  0  0  0
   -6.8180    0.1680    0.2970 H   0  0  0  0  0  0  0  0  0  0  0  0
   -9.7860    2.7190    0.2670 H   0  0  0  0  0  0  0  0  0  0  0  0
  -10.3700    2.5500   -1.4130 H   0  0  0  0  0  0  0  0  0  0  0  0
  -12.1820    1.7860    0.7960 H   0  0  0  0  0  0  0  0  0  0  0  0
   -1.1430    0.5320    0.3990 H   0  0  0  0  0  0  0  0  0  0  0  0
  1  2  1  0  0  0  0
  2  3  1  0  0  0  0
  2 18  1  0  0  0  0
  3  4  1  0  0  0  0
 18 19  2  0  0  0  0
 19 20  1  0  0  0  0
 18 36  1  0  0  0  0
 29 34  1  0  0  0  0
 29 33  1  0  0  0  0
 29 30  1  0  0  0  0
  6  7  1  0  0  0  0
 28 33  1  0  0  0  0
  4  5  1  0  0  0  0
  4 17  2  0  0  0  0
 20 21  2  0  0  0  0
 22 36  2  0  0  0  0
 14 15  1  0  0  0  0
 13 14  1  0  0  0  0
  5  6  2  0  0  0  0
  6  8  1  0  0  0  0
  5 16  1  0  0  0  0
 27 28  1  0  0  0  0
  8  9  2  0  0  0  0
 12 15  1  0  0  0  0
 10 16  2  0  0  0  0
 21 22  1  0  0  0  0
 27 30  1  0  0  0  0
 22 23  1  0  0  0  0
  9 10  1  0  0  0  0
 10 11  1  0  0  0  0
 27 32  1  0  0  0  0
 12 13  1  0  0  0  0
 11 12  1  0  0  0  0
 23 35  1  0  0  0  0
 23 24  2  0  0  0  0
 31 35  1  0  0  0  0
 24 25  1  0  0  0  0
 26 32  1  0  0  0  0
 26 31  1  0  0  0  0
 25 31  2  0  0  0  0
  1 37  1  0  0  0  0
  1 38  1  0  0  0  0
  1 39  1  0  0  0  0
  2 40  1  0  0  0  0
  3 41  1  0  0  0  0
  7 42  1  0  0  0  0
  7 43  1  0  0  0  0
  7 44  1  0  0  0  0
  8 45  1  0  0  0  0
  9 46  1  0  0  0  0
 11 47  1  0  0  0  0
 12 48  1  0  0  0  0
 13 49  1  0  0  0  0
 13 50  1  0  0  0  0
 14 51  1  0  0  0  0
 15 52  1  0  0  0  0
 15 53  1  0  0  0  0
 16 54  1  0  0  0  0
 19 55  1  0  0  0  0
 20 56  1  0  0  0  0
 21 57  1  0  0  0  0
 24 58  1  0  0  0  0
 25 59  1  0  0  0  0
 26 60  1  0  0  0  0
 26 61  1  0  0  0  0
 27 62  1  0  0  0  0
 28 63  1  0  0  0  0
 28 64  1  0  0  0  0
 29 65  1  0  0  0  0
 30 66  1  0  0  0  0
 30 67  1  0  0  0  0
 32 68  1  0  0  0  0
 33 69  1  0  0  0  0
 33 70  1  0  0  0  0
 34 71  1  0  0  0  0
 36 72  1  0  0  0  0
M  END
> <OPENEYE_ISO_SMILES>
Cc1ccc(cc1C(=O)N[C@H](C)c2cccc(c2)c3ccc(s3)CN[C@@H]4CC[C@@H](C4)O)NC5CNC5

> <OPENEYE_INCHI>
InChI=1S/C29H36N4O2S/c1-18-6-7-23(33-24-15-30-16-24)14-27(18)29(35)32-19(2)20-4-3-5-21(12-20)28-11-10-26(36-28)17-31-22-8-9-25(34)13-22/h3-7,10-12,14,19,22,24-25,30-31,33-34H,8-9,13,15-17H2,1-2H3,(H,32,35)/t19-,22-,25+/m1/s1

> <OPENEYE_INCHIKEY>
IGVYCVBUHQMNRZ-QNIAMRLHSA-N

> <FORMULA>
C29H36N4O2S

$$$$
