Y4J
  -OEChem-02242320043D

 75 77  0     1  0  0  0  0  0999 V2000
    2.3520   -0.2230   -0.2220 N   0  0  0  0  0  0  0  0  0  0  0  0
    1.2040    0.4090    0.0940 C   0  0  0  0  0  0  0  0  0  0  0  0
    0.0370    0.1970   -2.0830 C   0  0  0  0  0  0  0  0  0  0  0  0
   -1.1790    0.8360   -0.0610 N   0  0  0  0  0  0  0  0  0  0  0  0
   -2.4460    0.3770   -0.0920 C   0  0  0  0  0  0  0  0  0  0  0  0
   -4.7900    0.5820    0.3110 C   0  0  0  0  0  0  0  0  0  0  0  0
   -5.7900    1.5870    0.8850 C   0  0  2  0  0  0  0  0  0  0  0  0
   -6.3970    1.0250    2.1700 C   0  0  0  0  0  0  0  0  0  0  0  0
   -7.1850   -0.2450    1.8920 C   0  0  1  0  0  0  0  0  0  0  0  0
   -8.2600   -0.0030    0.8320 C   0  0  0  0  0  0  0  0  0  0  0  0
   -7.5750    0.4910   -0.4490 C   0  0  1  0  0  0  0  0  0  0  0  0
   -6.9040    1.8390   -0.1370 C   0  0  0  0  0  0  0  0  0  0  0  0
    2.9340   -2.6480    0.8250 C   0  0  0  0  0  0  0  0  0  0  0  0
    4.6400   -4.1200    0.2620 C   0  0  0  0  0  0  0  0  0  0  0  0
    5.2490   -3.1440    1.2930 C   0  0  0  0  0  0  0  0  0  0  0  0
    4.2170   -1.9930    1.2860 C   0  0  1  0  0  0  0  0  0  0  0  0
    4.6430   -0.8990    0.3060 C   0  0  0  0  0  0  0  0  0  0  0  0
    3.6230    0.2420    0.3400 C   0  0  1  0  0  0  0  0  0  0  0  0
    4.1460    1.4180   -0.4870 C   0  0  2  0  0  0  0  0  0  0  0  0
   -0.0860    0.0050   -0.5710 C   0  0  2  0  0  0  0  0  0  0  0  0
   -1.2250   -0.3300   -2.7690 C   0  0  0  0  0  0  0  0  0  0  0  0
   -1.1560   -0.0260   -4.2670 C   0  0  0  0  0  0  0  0  0  0  0  0
   -1.3260   -1.8420   -2.5600 C   0  0  0  0  0  0  0  0  0  0  0  0
   -6.4920   -0.4810   -0.8360 C   0  0  0  0  0  0  0  0  0  0  0  0
   -5.9270   -1.2870    0.0040 C   0  0  0  0  0  0  0  0  0  0  0  0
   -6.2800   -1.3900    1.4570 C   0  0  0  0  0  0  0  0  0  0  0  0
    3.2000   -3.8390    0.2610 N   0  0  0  0  0  0  0  0  0  0  0  0
    1.8260   -2.1700    0.9510 O   0  0  0  0  0  0  0  0  0  0  0  0
    4.4950    0.9630   -1.7950 O   0  0  0  0  0  0  0  0  0  0  0  0
   -3.4510    1.1400    0.3770 O   0  0  0  0  0  0  0  0  0  0  0  0
   -2.6810   -0.7270   -0.5440 O   0  0  0  0  0  0  0  0  0  0  0  0
    1.2100    1.3030    0.9130 O   0  0  0  0  0  0  0  0  0  0  0  0
    2.3360   -0.9880   -0.8180 H   0  0  0  0  0  0  0  0  0  0  0  0
    0.1570    1.2570   -2.3070 H   0  0  0  0  0  0  0  0  0  0  0  0
    0.9050   -0.3520   -2.4500 H   0  0  0  0  0  0  0  0  0  0  0  0
   -0.9920    1.7170    0.3000 H   0  0  0  0  0  0  0  0  0  0  0  0
   -4.8270   -0.3400    0.8910 H   0  0  0  0  0  0  0  0  0  0  0  0
   -5.0440    0.3680   -0.7270 H   0  0  0  0  0  0  0  0  0  0  0  0
   -5.2790    2.5240    1.1040 H   0  0  0  0  0  0  0  0  0  0  0  0
   -5.5960    0.8020    2.8760 H   0  0  0  0  0  0  0  0  0  0  0  0
   -7.0620    1.7690    2.6080 H   0  0  0  0  0  0  0  0  0  0  0  0
   -7.6800   -0.5480    2.8150 H   0  0  0  0  0  0  0  0  0  0  0  0
   -8.7920   -0.9330    0.6280 H   0  0  0  0  0  0  0  0  0  0  0  0
   -8.9620    0.7510    1.1870 H   0  0  0  0  0  0  0  0  0  0  0  0
   -8.3040    0.6030   -1.2520 H   0  0  0  0  0  0  0  0  0  0  0  0
   -7.6380    2.5290    0.2800 H   0  0  0  0  0  0  0  0  0  0  0  0
   -6.4790    2.2590   -1.0490 H   0  0  0  0  0  0  0  0  0  0  0  0
    5.0610   -3.9350   -0.7260 H   0  0  0  0  0  0  0  0  0  0  0  0
    4.8240   -5.1510    0.5640 H   0  0  0  0  0  0  0  0  0  0  0  0
    5.3110   -3.6070    2.2790 H   0  0  0  0  0  0  0  0  0  0  0  0
    6.2280   -2.7930    0.9670 H   0  0  0  0  0  0  0  0  0  0  0  0
    4.0960   -1.5800    2.2880 H   0  0  0  0  0  0  0  0  0  0  0  0
    5.6230   -0.5170    0.5900 H   0  0  0  0  0  0  0  0  0  0  0  0
    4.6920   -1.3120   -0.7020 H   0  0  0  0  0  0  0  0  0  0  0  0
    3.4690    0.5610    1.3700 H   0  0  0  0  0  0  0  0  0  0  0  0
    3.3710    2.1820   -0.5620 H   0  0  0  0  0  0  0  0  0  0  0  0
    5.6100    2.1210    0.3210 S   0  0  0  0  0  0  0  0  0  0  0  0
   -0.2940   -1.0430   -0.3530 H   0  0  0  0  0  0  0  0  0  0  0  0
   -2.1010    0.1560   -2.3390 H   0  0  0  0  0  0  0  0  0  0  0  0
   -0.2800   -0.5110   -4.6970 H   0  0  0  0  0  0  0  0  0  0  0  0
   -2.0560   -0.4010   -4.7550 H   0  0  0  0  0  0  0  0  0  0  0  0
   -1.0840    1.0520   -4.4160 H   0  0  0  0  0  0  0  0  0  0  0  0
   -1.3750   -2.0590   -1.4930 H   0  0  0  0  0  0  0  0  0  0  0  0
   -2.2260   -2.2170   -3.0480 H   0  0  0  0  0  0  0  0  0  0  0  0
   -0.4500   -2.3280   -2.9900 H   0  0  0  0  0  0  0  0  0  0  0  0
   -6.1700   -0.5070   -1.8660 H   0  0  0  0  0  0  0  0  0  0  0  0
   -5.1460   -1.9320   -0.3690 H   0  0  0  0  0  0  0  0  0  0  0  0
   -5.3650   -1.3650    2.0490 H   0  0  0  0  0  0  0  0  0  0  0  0
   -6.7920   -2.3360    1.6330 H   0  0  0  0  0  0  0  0  0  0  0  0
    2.5260   -4.4350   -0.1010 H   0  0  0  0  0  0  0  0  0  0  0  0
    3.7590    0.5750   -2.2860 H   0  0  0  0  0  0  0  0  0  0  0  0
    5.9410    3.3780   -0.2530 O   0  0  0  0  0  0  0  0  0  0  0  0
    5.1410    2.4630    1.7280 O   0  0  0  0  0  0  0  0  0  0  0  0
    6.6010    1.1210    0.5150 O   0  0  0  0  0  0  0  0  0  0  0  0
    5.8260    2.8530    2.2870 H   0  0  0  0  0  0  0  0  0  0  0  0
 25 26  1  0  0  0  0
  9 26  1  0  0  0  0
 13 28  2  0  0  0  0
 24 25  2  0  0  0  0
  8  9  1  0  0  0  0
  9 10  1  0  0  0  0
 13 27  1  0  0  0  0
 13 16  1  0  0  0  0
 14 27  1  0  0  0  0
  6 30  1  0  0  0  0
  6  7  1  0  0  0  0
 11 24  1  0  0  0  0
  5 31  2  0  0  0  0
  7  8  1  0  0  0  0
 10 11  1  0  0  0  0
  5 30  1  0  0  0  0
 16 17  1  0  0  0  0
 15 16  1  0  0  0  0
  4  5  1  0  0  0  0
 14 15  1  0  0  0  0
  7 12  1  0  0  0  0
 11 12  1  0  0  0  0
 21 23  1  0  0  0  0
 17 18  1  0  0  0  0
  4 20  1  0  0  0  0
  2 20  1  0  0  0  0
  3 20  1  0  0  0  0
  1  2  1  0  0  0  0
  1 18  1  0  0  0  0
  2 32  2  0  0  0  0
 18 19  1  0  0  0  0
  3 21  1  0  0  0  0
 21 22  1  0  0  0  0
 19 29  1  0  0  0  0
  1 33  1  0  0  0  0
  3 34  1  0  0  0  0
  3 35  1  0  0  0  0
  4 36  1  0  0  0  0
  6 37  1  0  0  0  0
  6 38  1  0  0  0  0
  7 39  1  0  0  0  0
  8 40  1  0  0  0  0
  8 41  1  0  0  0  0
  9 42  1  0  0  0  0
 10 43  1  0  0  0  0
 10 44  1  0  0  0  0
 11 45  1  0  0  0  0
 12 46  1  0  0  0  0
 12 47  1  0  0  0  0
 14 48  1  0  0  0  0
 14 49  1  0  0  0  0
 15 50  1  0  0  0  0
 15 51  1  0  0  0  0
 16 52  1  0  0  0  0
 17 53  1  0  0  0  0
 17 54  1  0  0  0  0
 18 55  1  0  0  0  0
 19 56  1  0  0  0  0
 19 57  1  0  0  0  0
 20 58  1  0  0  0  0
 21 59  1  0  0  0  0
 22 60  1  0  0  0  0
 22 61  1  0  0  0  0
 22 62  1  0  0  0  0
 23 63  1  0  0  0  0
 23 64  1  0  0  0  0
 23 65  1  0  0  0  0
 24 66  1  0  0  0  0
 25 67  1  0  0  0  0
 26 68  1  0  0  0  0
 26 69  1  0  0  0  0
 27 70  1  0  0  0  0
 29 71  1  0  0  0  0
 57 72  2  0  0  0  0
 57 73  1  0  0  0  0
 57 74  2  0  0  0  0
 73 75  1  0  0  0  0
M  END
> <OPENEYE_ISO_SMILES>
CC(C)C[C@@H](C(=O)N[C@@H](C[C@@H]1CCNC1=O)[C@H](O)S(=O)(=O)O)NC(=O)OC[C@@H]2C[C@@H]3CC=C[C@@H](C3)C2

> <OPENEYE_INCHI>
InChI=1S/C24H39N3O8S/c1-14(2)8-19(27-24(31)35-13-17-10-15-4-3-5-16(9-15)11-17)22(29)26-20(23(30)36(32,33)34)12-18-6-7-25-21(18)28/h3-4,14-20,23,30H,5-13H2,1-2H3,(H,25,28)(H,26,29)(H,27,31)(H,32,33,34)/t15-,16+,17-,18-,19-,20-,23+/m0/s1

> <OPENEYE_INCHIKEY>
ZIWRGXZFSGDQST-ZDCSSWJMSA-N

> <FORMULA>
C24H39N3O8S

$$$$
