Y64
  -OEChem-02242320043D

 75 77  0     1  0  0  0  0  0999 V2000
   -1.2930   -0.1770    0.9210 C   0  0  0  0  0  0  0  0  0  0  0  0
   -0.3780   -1.3110   -1.0860 C   0  0  0  0  0  0  0  0  0  0  0  0
    0.7700   -1.3080   -2.0980 C   0  0  0  0  0  0  0  0  0  0  0  0
    0.5630   -2.4400   -3.1060 C   0  0  0  0  0  0  0  0  0  0  0  0
    0.7960    0.0330   -2.8350 C   0  0  0  0  0  0  0  0  0  0  0  0
    2.3080   -0.3020    0.3060 C   0  0  0  0  0  0  0  0  0  0  0  0
    4.6890   -0.2550    0.4630 C   0  0  0  0  0  0  0  0  0  0  0  0
    7.1800    1.3220    0.9440 C   0  0  2  0  0  0  0  0  0  0  0  0
    8.1510    0.4860    0.1090 C   0  0  0  0  0  0  0  0  0  0  0  0
    7.3680   -0.6630   -0.5380 C   0  0  1  0  0  0  0  0  0  0  0  0
   -2.9950    2.6700   -0.2910 C   0  0  0  0  0  0  0  0  0  0  0  0
   -4.8290    3.5960   -1.3750 C   0  0  0  0  0  0  0  0  0  0  0  0
   -5.1940    3.5740    0.1260 C   0  0  0  0  0  0  0  0  0  0  0  0
   -4.1420    2.5930    0.6920 C   0  0  1  0  0  0  0  0  0  0  0  0
   -4.7080    1.1720    0.7440 C   0  0  0  0  0  0  0  0  0  0  0  0
   -3.6600    0.2270    1.3350 C   0  0  1  0  0  0  0  0  0  0  0  0
   -4.2680   -1.1670    1.5030 C   0  0  1  0  0  0  0  0  0  0  0  0
   -0.1080   -0.2600   -0.0060 C   0  0  2  0  0  0  0  0  0  0  0  0
    5.8060   -0.7350    1.3910 C   0  0  2  0  0  0  0  0  0  0  0  0
    6.5070    0.4730    2.0110 C   0  0  0  0  0  0  0  0  0  0  0  0
    6.8200   -1.5570    0.5880 C   0  0  0  0  0  0  0  0  0  0  0  0
    6.1900   -0.0980   -1.2880 C   0  0  0  0  0  0  0  0  0  0  0  0
    5.6670    1.0550   -1.0230 C   0  0  0  0  0  0  0  0  0  0  0  0
    6.1640    1.9960    0.0320 C   0  0  0  0  0  0  0  0  0  0  0  0
   -3.4070    3.2410   -1.4370 N   0  0  0  0  0  0  0  0  0  0  0  0
   -2.5070    0.1520    0.4350 N   0  0  0  0  0  0  0  0  0  0  0  0
    1.0830   -0.6390    0.7570 N   0  0  0  0  0  0  0  0  0  0  0  0
   -1.8680    2.2800   -0.0760 O   0  0  0  0  0  0  0  0  0  0  0  0
   -5.4600   -1.0760    2.2860 O   0  0  0  0  0  0  0  0  0  0  0  0
    3.4030   -0.6510    1.0080 O   0  0  0  0  0  0  0  0  0  0  0  0
    2.4240    0.3150   -0.7330 O   0  0  0  0  0  0  0  0  0  0  0  0
   -1.1560   -0.4110    2.1030 O   0  0  0  0  0  0  0  0  0  0  0  0
   -1.3120   -1.0760   -1.5950 H   0  0  0  0  0  0  0  0  0  0  0  0
   -0.4520   -2.2950   -0.6240 H   0  0  0  0  0  0  0  0  0  0  0  0
    1.7150   -1.4540   -1.5760 H   0  0  0  0  0  0  0  0  0  0  0  0
   -0.3820   -2.2940   -3.6280 H   0  0  0  0  0  0  0  0  0  0  0  0
    1.3810   -2.4380   -3.8270 H   0  0  0  0  0  0  0  0  0  0  0  0
    0.5450   -3.3950   -2.5810 H   0  0  0  0  0  0  0  0  0  0  0  0
   -0.1500    0.1790   -3.3570 H   0  0  0  0  0  0  0  0  0  0  0  0
    0.9430    0.8400   -2.1170 H   0  0  0  0  0  0  0  0  0  0  0  0
    1.6130    0.0350   -3.5560 H   0  0  0  0  0  0  0  0  0  0  0  0
    4.7290    0.8310    0.3770 H   0  0  0  0  0  0  0  0  0  0  0  0
    4.8190   -0.7010   -0.5230 H   0  0  0  0  0  0  0  0  0  0  0  0
    7.7490    2.1070    1.4420 H   0  0  0  0  0  0  0  0  0  0  0  0
    8.5980    1.1080   -0.6670 H   0  0  0  0  0  0  0  0  0  0  0  0
    8.9330    0.0810    0.7510 H   0  0  0  0  0  0  0  0  0  0  0  0
    8.0130   -1.2380   -1.2020 H   0  0  0  0  0  0  0  0  0  0  0  0
   -5.4250    2.8640   -1.9180 H   0  0  0  0  0  0  0  0  0  0  0  0
   -4.9890    4.5930   -1.7870 H   0  0  0  0  0  0  0  0  0  0  0  0
   -5.0830    4.5640    0.5690 H   0  0  0  0  0  0  0  0  0  0  0  0
   -6.2050    3.1940    0.2760 H   0  0  0  0  0  0  0  0  0  0  0  0
   -3.8170    2.9090    1.6830 H   0  0  0  0  0  0  0  0  0  0  0  0
   -5.6020    1.1600    1.3680 H   0  0  0  0  0  0  0  0  0  0  0  0
   -4.9640    0.8460   -0.2640 H   0  0  0  0  0  0  0  0  0  0  0  0
   -3.3390    0.6030    2.3070 H   0  0  0  0  0  0  0  0  0  0  0  0
   -3.5520   -1.8170    2.0050 H   0  0  0  0  0  0  0  0  0  0  0  0
   -4.6670   -1.8530   -0.1280 S   0  0  0  0  0  0  0  0  0  0  0  0
    0.0540    0.7100   -0.4760 H   0  0  0  0  0  0  0  0  0  0  0  0
    5.3810   -1.3540    2.1810 H   0  0  0  0  0  0  0  0  0  0  0  0
    7.2600    0.1250    2.7190 H   0  0  0  0  0  0  0  0  0  0  0  0
    5.7730    1.0800    2.5410 H   0  0  0  0  0  0  0  0  0  0  0  0
    6.3290   -2.4310    0.1590 H   0  0  0  0  0  0  0  0  0  0  0  0
    7.6360   -1.8730    1.2370 H   0  0  0  0  0  0  0  0  0  0  0  0
    5.7610   -0.6850   -2.0860 H   0  0  0  0  0  0  0  0  0  0  0  0
    4.8110    1.3630   -1.6060 H   0  0  0  0  0  0  0  0  0  0  0  0
    5.3190    2.3380    0.6310 H   0  0  0  0  0  0  0  0  0  0  0  0
    6.6300    2.8560   -0.4480 H   0  0  0  0  0  0  0  0  0  0  0  0
   -2.8360    3.3980   -2.2060 H   0  0  0  0  0  0  0  0  0  0  0  0
   -2.6160    0.3400   -0.5100 H   0  0  0  0  0  0  0  0  0  0  0  0
    0.9910   -1.1320    1.5870 H   0  0  0  0  0  0  0  0  0  0  0  0
   -6.1430   -0.5120    1.8980 H   0  0  0  0  0  0  0  0  0  0  0  0
   -5.6580   -1.0640   -0.7720 O   0  0  0  0  0  0  0  0  0  0  0  0
   -3.4820   -2.2400   -0.8100 O   0  0  0  0  0  0  0  0  0  0  0  0
   -5.3720   -3.1670    0.1740 O   0  0  0  0  0  0  0  0  0  0  0  0
   -5.6490   -3.6550   -0.6130 H   0  0  0  0  0  0  0  0  0  0  0  0
 23 24  1  0  0  0  0
  8 24  1  0  0  0  0
 11 28  2  0  0  0  0
 22 23  2  0  0  0  0
  8 20  1  0  0  0  0
  8  9  1  0  0  0  0
 11 25  1  0  0  0  0
 11 14  1  0  0  0  0
 12 25  1  0  0  0  0
  7 30  1  0  0  0  0
  7 19  1  0  0  0  0
 10 22  1  0  0  0  0
  6 31  2  0  0  0  0
 19 20  1  0  0  0  0
  9 10  1  0  0  0  0
  6 30  1  0  0  0  0
 14 15  1  0  0  0  0
 13 14  1  0  0  0  0
  6 27  1  0  0  0  0
 12 13  1  0  0  0  0
 19 21  1  0  0  0  0
 10 21  1  0  0  0  0
  3  5  1  0  0  0  0
 15 16  1  0  0  0  0
 18 27  1  0  0  0  0
  1 18  1  0  0  0  0
  2 18  1  0  0  0  0
 16 26  1  0  0  0  0
  1 26  1  0  0  0  0
 16 17  1  0  0  0  0
  2  3  1  0  0  0  0
  3  4  1  0  0  0  0
  1 32  2  0  0  0  0
 17 29  1  0  0  0  0
  2 33  1  0  0  0  0
  2 34  1  0  0  0  0
  3 35  1  0  0  0  0
  4 36  1  0  0  0  0
  4 37  1  0  0  0  0
  4 38  1  0  0  0  0
  5 39  1  0  0  0  0
  5 40  1  0  0  0  0
  5 41  1  0  0  0  0
  7 42  1  0  0  0  0
  7 43  1  0  0  0  0
  8 44  1  0  0  0  0
  9 45  1  0  0  0  0
  9 46  1  0  0  0  0
 10 47  1  0  0  0  0
 12 48  1  0  0  0  0
 12 49  1  0  0  0  0
 13 50  1  0  0  0  0
 13 51  1  0  0  0  0
 14 52  1  0  0  0  0
 15 53  1  0  0  0  0
 15 54  1  0  0  0  0
 16 55  1  0  0  0  0
 17 56  1  0  0  0  0
 17 57  1  0  0  0  0
 18 58  1  0  0  0  0
 19 59  1  0  0  0  0
 20 60  1  0  0  0  0
 20 61  1  0  0  0  0
 21 62  1  0  0  0  0
 21 63  1  0  0  0  0
 22 64  1  0  0  0  0
 23 65  1  0  0  0  0
 24 66  1  0  0  0  0
 24 67  1  0  0  0  0
 25 68  1  0  0  0  0
 26 69  1  0  0  0  0
 27 70  1  0  0  0  0
 29 71  1  0  0  0  0
 57 72  2  0  0  0  0
 57 73  2  0  0  0  0
 57 74  1  0  0  0  0
 74 75  1  0  0  0  0
M  END
> <OPENEYE_ISO_SMILES>
CC(C)C[C@@H](C(=O)N[C@@H](C[C@@H]1CCNC1=O)[C@@H](O)S(=O)(=O)O)NC(=O)OC[C@@H]2C[C@@H]3CC=C[C@@H](C3)C2

> <OPENEYE_INCHI>
InChI=1S/C24H39N3O8S/c1-14(2)8-19(27-24(31)35-13-17-10-15-4-3-5-16(9-15)11-17)22(29)26-20(23(30)36(32,33)34)12-18-6-7-25-21(18)28/h3-4,14-20,23,30H,5-13H2,1-2H3,(H,25,28)(H,26,29)(H,27,31)(H,32,33,34)/t15-,16+,17-,18-,19-,20-,23-/m0/s1

> <OPENEYE_INCHIKEY>
ZIWRGXZFSGDQST-LZHMTVEHSA-N

> <FORMULA>
C24H39N3O8S

$$$$
