RJL
  -OEChem-02242320043D

 39 40  0     0  0  0  0  0  0999 V2000
   -4.8470    0.0680   -0.0080 C   0  0  0  0  0  0  0  0  0  0  0  0
   -3.5170   -0.5770   -0.0090 C   0  0  0  0  0  0  0  0  0  0  0  0
   -1.0830   -0.4600   -0.0070 C   0  0  0  0  0  0  0  0  0  0  0  0
    0.0060    0.6150   -0.0030 C   0  0  0  0  0  0  0  0  0  0  0  0
   -7.2870    1.2890    0.0050 C   0  0  0  0  0  0  0  0  0  0  0  0
   -6.0990    2.0060    0.0080 C   0  0  0  0  0  0  0  0  0  0  0  0
    8.5370    0.1650    0.0120 C   0  0  0  0  0  0  0  0  0  0  0  0
    6.1600    0.2050   -0.0000 C   0  0  0  0  0  0  0  0  0  0  0  0
    6.1840   -1.1830   -0.0040 C   0  0  0  0  0  0  0  0  0  0  0  0
    3.8830   -1.3040   -0.0050 C   0  0  0  0  0  0  0  0  0  0  0  0
    3.7700    0.0860   -0.0010 C   0  0  0  0  0  0  0  0  0  0  0  0
    4.9350    0.8610    0.0010 C   0  0  0  0  0  0  0  0  0  0  0  0
    2.4400    0.7320   -0.0010 C   0  0  0  0  0  0  0  0  0  0  0  0
   -7.2460   -0.0940   -0.0040 C   0  0  0  0  0  0  0  0  0  0  0  0
   -6.0020   -0.7210   -0.0110 C   0  0  0  0  0  0  0  0  0  0  0  0
    5.0660   -1.8820   -0.0070 N   0  0  0  0  0  0  0  0  0  0  0  0
    1.3240   -0.0240   -0.0040 N   0  0  0  0  0  0  0  0  0  0  0  0
   -2.4010    0.1790   -0.0060 N   0  0  0  0  0  0  0  0  0  0  0  0
   -4.9370    1.3940    0.0010 N   0  0  0  0  0  0  0  0  0  0  0  0
    7.3190    0.9140    0.0080 O   0  0  0  0  0  0  0  0  0  0  0  0
    2.3520    1.9440    0.0030 O   0  0  0  0  0  0  0  0  0  0  0  0
   -3.4290   -1.7890   -0.0120 O   0  0  0  0  0  0  0  0  0  0  0  0
   -5.9120   -2.0740   -0.0210 O   0  0  0  0  0  0  0  0  0  0  0  0
   -0.9790   -1.0790   -0.8980 H   0  0  0  0  0  0  0  0  0  0  0  0
   -0.9810   -1.0840    0.8820 H   0  0  0  0  0  0  0  0  0  0  0  0
   -0.0960    1.2390   -0.8910 H   0  0  0  0  0  0  0  0  0  0  0  0
   -0.0980    1.2340    0.8890 H   0  0  0  0  0  0  0  0  0  0  0  0
   -8.2360    1.8050    0.0100 H   0  0  0  0  0  0  0  0  0  0  0  0
   -6.1310    3.0860    0.0150 H   0  0  0  0  0  0  0  0  0  0  0  0
    8.5730   -0.4650    0.9000 H   0  0  0  0  0  0  0  0  0  0  0  0
    8.5820   -0.4600   -0.8800 H   0  0  0  0  0  0  0  0  0  0  0  0
    9.3840    0.8510    0.0180 H   0  0  0  0  0  0  0  0  0  0  0  0
    7.1340   -1.6980   -0.0050 H   0  0  0  0  0  0  0  0  0  0  0  0
    2.9910   -1.9130   -0.0070 H   0  0  0  0  0  0  0  0  0  0  0  0
    4.8840    1.9390    0.0040 H   0  0  0  0  0  0  0  0  0  0  0  0
   -8.1570   -0.6740   -0.0070 H   0  0  0  0  0  0  0  0  0  0  0  0
    1.3930   -0.9920   -0.0060 H   0  0  0  0  0  0  0  0  0  0  0  0
   -2.4710    1.1470   -0.0030 H   0  0  0  0  0  0  0  0  0  0  0  0
   -5.8840   -2.4730    0.8600 H   0  0  0  0  0  0  0  0  0  0  0  0
  7 20  1  0  0  0  0
  8 20  1  0  0  0  0
  8  9  2  0  0  0  0
  8 12  1  0  0  0  0
  9 16  1  0  0  0  0
 11 12  2  0  0  0  0
 10 16  2  0  0  0  0
 10 11  1  0  0  0  0
 11 13  1  0  0  0  0
 13 21  2  0  0  0  0
 13 17  1  0  0  0  0
  4 17  1  0  0  0  0
  3  4  1  0  0  0  0
  3 18  1  0  0  0  0
  2 18  1  0  0  0  0
  2 22  2  0  0  0  0
  1  2  1  0  0  0  0
 15 23  1  0  0  0  0
  1 15  2  0  0  0  0
  1 19  1  0  0  0  0
 14 15  1  0  0  0  0
  6 19  2  0  0  0  0
  5 14  2  0  0  0  0
  5  6  1  0  0  0  0
  3 24  1  0  0  0  0
  3 25  1  0  0  0  0
  4 26  1  0  0  0  0
  4 27  1  0  0  0  0
  5 28  1  0  0  0  0
  6 29  1  0  0  0  0
  7 30  1  0  0  0  0
  7 31  1  0  0  0  0
  7 32  1  0  0  0  0
  9 33  1  0  0  0  0
 10 34  1  0  0  0  0
 12 35  1  0  0  0  0
 14 36  1  0  0  0  0
 17 37  1  0  0  0  0
 18 38  1  0  0  0  0
 23 39  1  0  0  0  0
M  END
> <OPENEYE_ISO_SMILES>
COc1cc(cnc1)C(=O)NCCNC(=O)c2c(cccn2)O

> <OPENEYE_INCHI>
InChI=1S/C15H16N4O4/c1-23-11-7-10(8-16-9-11)14(21)18-5-6-19-15(22)13-12(20)3-2-4-17-13/h2-4,7-9,20H,5-6H2,1H3,(H,18,21)(H,19,22)

> <OPENEYE_INCHIKEY>
YVVRFBXSKUTJJG-UHFFFAOYSA-N

> <FORMULA>
C15H16N4O4

$$$$
