@<TRIPOS>MOLECULE
/home/pku/3cl/gett_pdb/5SPK/5SPK_mol2/ligand/5SPK_S4F.pdb
 35 36 0 0 0
SMALL
GASTEIGER

@<TRIPOS>ATOM
      1  C18      -42.5780  -32.3240   -5.2780 C.ar  201  S4F201      0.1202
      2  C14      -43.6200  -32.3240    2.0050 C.2   201  S4F201      0.0871
      3  C13      -44.3620  -31.8010    0.7730 C.3   201  S4F201     -0.0037
      4  C12      -45.4970  -32.7530    0.3760 C.3   201  S4F201     -0.0429
      5  C11      -44.4580  -33.3430   -1.8310 C.3   201  S4F201      0.0164
      6  C10      -44.9990  -33.9260   -0.5100 C.3   201  S4F201     -0.0248
      7  C02      -41.9620  -34.4650   -5.7420 C.ar  201  S4F201      0.1397
      8  C03      -42.6520  -34.9310   -4.6520 C.ar  201  S4F201      0.1201
      9  C05      -43.3260  -33.9960   -3.8820 C.ar  201  S4F201      0.1448
     10  C07      -45.2600  -35.2760   -3.0390 C.3   201  S4F201      0.0136
     11  C08      -45.8690  -35.9140   -1.7810 C.3   201  S4F201     -0.0369
     12  C09      -46.1210  -34.9120   -0.6990 C.3   201  S4F201     -0.0474
     13  N01      -41.2790  -35.4440   -6.5410 N.pl3 201  S4F201     -0.3418
     14  N06      -44.0550  -34.4560   -2.7130 N.pl3 201  S4F201     -0.3136
     15  N17      -43.2660  -32.7160   -4.2150 N.ar  201  S4F201     -0.2191
     16  N19      -41.9350  -33.1800   -6.0410 N.ar  201  S4F201     -0.2195
     17  O15      -43.3750  -33.5540    2.0980 O.co2 201  S4F201     -0.8476
     18  O16      -43.2610  -31.5430    2.9270 O.co2 201  S4F201     -0.3090
     19 CL04      -42.6380  -36.6850   -4.3060 Cl    201  S4F201     -0.0764
     20 H181      -42.5440  -31.2760   -5.5470 H     201  S4F201      0.1048
     21 H131      -44.8100  -30.8430    0.9990 H     201  S4F201      0.0333
     22 H132      -43.6580  -31.6480   -0.0430 H     201  S4F201      0.0333
     23 H122      -45.9420  -33.1600    1.2790 H     201  S4F201      0.0272
     24 H121      -46.2610  -32.2060   -0.1740 H     201  S4F201      0.0272
     25 H111      -45.2490  -32.7760   -2.3170 H     201  S4F201      0.0467
     26 H112      -43.5910  -32.7040   -1.6530 H     201  S4F201      0.0467
     27 H101      -44.1860  -34.4310   -0.0100 H     201  S4F201      0.0316
     28 H071      -44.9820  -36.0760   -3.6970 H     201  S4F201      0.0464
     29 H072      -46.0020  -34.6620   -3.5420 H     201  S4F201      0.0464
     30 H082      -45.1540  -36.6580   -1.4120 H     201  S4F201      0.0280
     31 H081      -46.7930  -36.4150   -2.0500 H     201  S4F201      0.0280
     32 H091      -46.2700  -35.4520    0.2310 H     201  S4F201      0.0269
     33 H092      -47.0340  -34.3780   -0.9340 H     201  S4F201      0.0269
     34 H012      -41.7620  -35.8680   -7.3040 H     201  S4F201      0.1437
     35 H011      -40.3520  -35.7150   -6.3040 H     201  S4F201      0.1437
@<TRIPOS>UNITY_ATOM_ATTR
17 1
charge -1
@<TRIPOS>BOND
     1    34    13    1
     2    13    35    1
     3    13     7    1
     4    16     7   ar
     5    16     1   ar
     6     7     8   ar
     7    20     1    1
     8     1    15   ar
     9     8    19    1
    10     8     9   ar
    11    15     9   ar
    12     9    14    1
    13    28    10    1
    14    29    10    1
    15    10    14    1
    16    10    11    1
    17    14     5    1
    18    25     5    1
    19    31    11    1
    20     5    26    1
    21     5     6    1
    22    11    30    1
    23    11    12    1
    24    33    12    1
    25    12     6    1
    26    12    32    1
    27     6    27    1
    28     6     4    1
    29    24     4    1
    30    22     3    1
    31     4     3    1
    32     4    23    1
    33     3    21    1
    34     3     2    1
    35     2    17   ar
    36     2    18   ar
