@<TRIPOS>MOLECULE
/home/pku/3cl/gett_pdb/5SR1/5SR1_mol2/ligand/5SR1_QXL.pdb
 32 34 0 0 0
SMALL
GASTEIGER

@<TRIPOS>ATOM
      1  C17      -45.2940  -29.6540    0.7060 C.3   201  QXL201      0.0840
      2  C15      -44.2790  -29.3700    6.2730 C.ar  201  QXL201      0.1204
      3  C13      -46.5740  -29.0050    6.5450 C.ar  201  QXL201      0.1431
      4  C11      -48.7200  -28.6400    6.2030 C.ar  201  QXL201      0.0042
      5  C10      -48.0970  -28.6970    4.9660 C.ar  201  QXL201     -0.0318
      6  C03      -45.0050  -27.2420   -0.3300 C.3   201  QXL201      0.0659
      7  C04      -44.3500  -26.7540    0.9550 C.3   201  QXL201     -0.0319
      8  C05      -43.7570  -27.9160    1.9180 C.3   201  QXL201     -0.0316
      9  C06      -44.6770  -29.2360    2.0330 C.3   201  QXL201      0.0413
     10  C08      -45.5620  -29.0940    4.3900 C.ar  201  QXL201      0.1315
     11  C09      -46.7210  -28.9320    5.1890 C.ar  201  QXL201      0.0583
     12  N07      -45.7400  -29.0080    2.9580 N.pl3 201  QXL201     -0.3241
     13  N12      -47.7920  -28.8250    7.1320 N.ar  201  QXL201     -0.3457
     14  N14      -45.3390  -29.2290    7.0450 N.ar  201  QXL201     -0.2178
     15  N16      -44.3710  -29.3080    4.9470 N.ar  201  QXL201     -0.2202
     16  O01      -46.6080  -28.9180   -1.4010 O.2   201  QXL201     -0.1743
     17  O18      -47.2380  -27.9240    0.8360 O.2   201  QXL201     -0.1743
     18  S02      -46.2120  -28.4210   -0.0810 S.O2  201  QXL201     -0.0293
     19 H172      -45.9430  -30.4790    0.9270 H     201  QXL201      0.0518
     20 H171      -44.5140  -29.9760    0.0230 H     201  QXL201      0.0518
     21 H151      -43.3150  -29.5470    6.7340 H     201  QXL201      0.1048
     22 H111      -49.7690  -28.4800    6.3780 H     201  QXL201      0.0807
     23 H101      -48.5690  -28.5880    4.0010 H     201  QXL201      0.0640
     24 H032      -44.2410  -27.7440   -0.9120 H     201  QXL201      0.0500
     25 H031      -45.4210  -26.4140   -0.8850 H     201  QXL201      0.0500
     26 H041      -45.1160  -26.2490    1.5210 H     201  QXL201      0.0281
     27 H042      -43.5590  -26.0550    0.7090 H     201  QXL201      0.0281
     28 H052      -43.6570  -27.5040    2.9170 H     201  QXL201      0.0284
     29 H051      -42.7790  -28.2120    1.5620 H     201  QXL201      0.0284
     30 H061      -44.0760  -30.0540    2.4150 H     201  QXL201      0.0514
     31 H071      -46.6530  -28.7880    2.6210 H     201  QXL201      0.1478
     32 H121      -47.9530  -28.8410    8.1220 H     201  QXL201      0.1668
@<TRIPOS>BOND
     1    16    18    2
     2    24     6    1
     3    25     6    1
     4     6    18    1
     5     6     7    1
     6    18     1    1
     7    18    17    2
     8    20     1    1
     9     1    19    1
    10     1     9    1
    11    27     7    1
    12     7    26    1
    13     7     8    1
    14    29     8    1
    15     8     9    1
    16     8    28    1
    17     9    30    1
    18     9    12    1
    19    31    12    1
    20    12    10    1
    21    23     5    1
    22    10    15   ar
    23    10    11   ar
    24    15     2   ar
    25     5    11   ar
    26     5     4   ar
    27    11     3   ar
    28     4    22    1
    29     4    13   ar
    30     2    21    1
    31     2    14   ar
    32     3    14   ar
    33     3    13   ar
    34    13    32    1
