MPD
  -OEChem-02242320033D

 22 21  0     1  0  0  0  0  0999 V2000
   -1.2970   -0.4630   -1.4620 C   0  0  0  0  0  0  0  0  0  0  0  0
   -1.1180   -0.0870    0.0100 C   0  0  0  0  0  0  0  0  0  0  0  0
   -1.0610    1.3360    0.1340 O   0  0  0  0  0  0  0  0  0  0  0  0
   -2.3000   -0.6220    0.8200 C   0  0  0  0  0  0  0  0  0  0  0  0
    0.1810   -0.6980    0.5390 C   0  0  0  0  0  0  0  0  0  0  0  0
    1.3630   -0.1620   -0.2720 C   0  0  1  0  0  0  0  0  0  0  0  0
    1.4910    1.2450   -0.0550 O   0  0  0  0  0  0  0  0  0  0  0  0
    2.6470   -0.8650    0.1730 C   0  0  0  0  0  0  0  0  0  0  0  0
   -0.4550   -0.0820   -2.0400 H   0  0  0  0  0  0  0  0  0  0  0  0
   -1.3410   -1.5480   -1.5570 H   0  0  0  0  0  0  0  0  0  0  0  0
   -2.2230   -0.0280   -1.8390 H   0  0  0  0  0  0  0  0  0  0  0  0
   -0.9480    1.6470    1.0430 H   0  0  0  0  0  0  0  0  0  0  0  0
   -2.3440   -1.7070    0.7250 H   0  0  0  0  0  0  0  0  0  0  0  0
   -2.1730   -0.3540    1.8690 H   0  0  0  0  0  0  0  0  0  0  0  0
   -3.2260   -0.1870    0.4440 H   0  0  0  0  0  0  0  0  0  0  0  0
    0.3080   -0.4290    1.5870 H   0  0  0  0  0  0  0  0  0  0  0  0
    0.1370   -1.7830    0.4440 H   0  0  0  0  0  0  0  0  0  0  0  0
    1.1930   -0.3520   -1.3320 H   0  0  0  0  0  0  0  0  0  0  0  0
    1.6450    1.4880    0.8680 H   0  0  0  0  0  0  0  0  0  0  0  0
    2.5490   -1.9390    0.0070 H   0  0  0  0  0  0  0  0  0  0  0  0
    3.4890   -0.4840   -0.4050 H   0  0  0  0  0  0  0  0  0  0  0  0
    2.8170   -0.6750    1.2320 H   0  0  0  0  0  0  0  0  0  0  0  0
  1  2  1  0  0  0  0
  1  9  1  0  0  0  0
  1 10  1  0  0  0  0
  1 11  1  0  0  0  0
  2  3  1  0  0  0  0
  2  4  1  0  0  0  0
  2  5  1  0  0  0  0
  3 12  1  0  0  0  0
  4 13  1  0  0  0  0
  4 14  1  0  0  0  0
  4 15  1  0  0  0  0
  5  6  1  0  0  0  0
  5 16  1  0  0  0  0
  5 17  1  0  0  0  0
  6  7  1  0  0  0  0
  6  8  1  0  0  0  0
  6 18  1  0  0  0  0
  7 19  1  0  0  0  0
  8 20  1  0  0  0  0
  8 21  1  0  0  0  0
  8 22  1  0  0  0  0
M  END
> <OPENEYE_ISO_SMILES>
C[C@@H](CC(C)(C)O)O

> <OPENEYE_INCHI>
InChI=1S/C6H14O2/c1-5(7)4-6(2,3)8/h5,7-8H,4H2,1-3H3/t5-/m0/s1

> <OPENEYE_INCHIKEY>
SVTBMSDMJJWYQN-YFKPBYRVSA-N

> <FORMULA>
C6H14O2

$$$$
