@<TRIPOS>MOLECULE
/home/pku/3cl/gett_pdb/5RT2/5RT2_mol2/ligand/5RT2_5OF.pdb
 22 23 0 0 0
SMALL
GASTEIGER

@<TRIPOS>ATOM
      1  C10      -44.8480  -28.7850    0.5350 C.ar  201  5OF201      0.0496
      2  C13      -46.6950  -30.8760    0.3060 C.ar  201  5OF201     -0.0611
      3  C15      -44.4240  -30.0710    0.6330 C.ar  201  5OF201      0.0107
      4  O01      -43.2700  -33.5660    2.3770 O.co2 201  5OF201     -0.8473
      5  C02      -42.9490  -32.3830    2.3490 C.2   201  5OF201      0.0930
      6  O03      -42.9240  -31.6500    3.3600 O.co2 201  5OF201     -0.3086
      7  C04      -42.5810  -31.8770    0.9740 C.3   201  5OF201      0.0407
      8  C05      -42.9610  -30.4290    0.8780 C.ar  201  5OF201      0.0755
      9  N06      -41.9790  -29.4250    0.9960 N.ar  201  5OF201     -0.1749
     10  N07      -42.4180  -28.1000    0.9230 N.ar  201  5OF201     -0.2425
     11  C08      -43.7930  -27.6900    0.7020 C.ar  201  5OF201      0.2725
     12  O09      -44.0350  -26.5720    0.6110 O.2   201  5OF201     -0.2658
     13  C11      -46.2030  -28.5150    0.3390 C.ar  201  5OF201     -0.0487
     14  C12      -47.1190  -29.5560    0.2060 C.ar  201  5OF201     -0.0610
     15  C14      -45.3420  -31.1240    0.5190 C.ar  201  5OF201     -0.0521
     16  H1       -47.3000  -31.5770    0.2250 H     201  5OF201      0.0618
     17  H3       -41.6230  -31.9630    0.8500 H     201  5OF201      0.0397
     18  H4       -43.0350  -32.3790    0.2880 H     201  5OF201      0.0397
     19  H5       -41.8250  -27.4810    0.9900 H     201  5OF201      0.1921
     20  H6       -46.4920  -27.6340    0.2640 H     201  5OF201      0.0625
     21  H7       -48.0180  -29.3670    0.0630 H     201  5OF201      0.0618
     22  H8       -45.0480  -32.0030    0.5860 H     201  5OF201      0.0624
@<TRIPOS>UNITY_ATOM_ATTR
4 1
charge -1
@<TRIPOS>BOND
     1    21    14    1
     2    14     2   ar
     3    14    13   ar
     4    16     2    1
     5    20    13    1
     6    18     7    1
     7     2    15   ar
     8    13     1   ar
     9    15    22    1
    10    15     3   ar
    11     1     3   ar
    12     1    11   ar
    13    12    11    2
    14     3     8   ar
    15    11    10   ar
    16    17     7    1
    17     8     7    1
    18     8     9   ar
    19    10    19    1
    20    10     9   ar
    21     7     5    1
    22     5     4   ar
    23     5     6   ar
