@<TRIPOS>MOLECULE
/home/pku/3cl/gett_pdb/5RT4/5RT4_mol2/ligand/5RT4_4BX.pdb
 23 24 0 0 0
SMALL
GASTEIGER

@<TRIPOS>ATOM
      1  C1       -47.6420  -28.6030    5.0250 C.ar  201  4BX201     -0.0597
      2  C2       -48.3210  -28.4380    3.8280 C.ar  201  4BX201     -0.0596
      3  C3       -49.6920  -28.6460    3.7470 C.ar  201  4BX201     -0.0342
      4  C4       -48.3280  -28.9850    6.1630 C.ar  201  4BX201     -0.0363
      5  N5       -50.6050  -29.6100    7.0090 N.ar  201  4BX201     -0.3418
      6  C6       -49.7140  -29.2120    6.0960 C.ar  201  4BX201      0.0662
      7  C7       -50.3850  -29.0510    4.9090 C.ar  201  4BX201      0.0891
      8  N8       -51.6790  -29.3660    5.1520 N.ar  201  4BX201     -0.2325
      9  C9       -51.7830  -29.6850    6.4210 C.ar  201  4BX201      0.1085
     10  C10      -53.0390  -30.0250    7.1630 C.3   201  4BX201      0.0113
     11  C11      -53.7470  -28.6960    7.3830 C.3   201  4BX201      0.0028
     12  C12      -54.9960  -28.7280    8.2080 C.2   201  4BX201      0.0875
     13  O13      -55.7420  -29.7270    8.2000 O.co2 201  4BX201     -0.8476
     14  O14      -55.3030  -27.7160    8.8630 O.co2 201  4BX201     -0.3090
     15  H1       -46.7260  -28.4500    5.0650 H     201  4BX201      0.0618
     16  H2       -47.8530  -28.1710    3.0700 H     201  4BX201      0.0618
     17  H3       -50.1450  -28.5360    2.9480 H     201  4BX201      0.0639
     18  H4       -47.8730  -29.1050    6.9650 H     201  4BX201      0.0639
     19  H10      -52.8260  -30.4380    8.0150 H     201  4BX201      0.0347
     20 H10A      -53.5980  -30.6120    6.6330 H     201  4BX201      0.0347
     21  H11      -53.1210  -28.0910    7.8110 H     201  4BX201      0.0337
     22 H11A      -53.9720  -28.3300    6.5140 H     201  4BX201      0.0337
     23  HN5      -50.4430  -29.7650    7.8390 H     201  4BX201      0.1671
@<TRIPOS>UNITY_ATOM_ATTR
13 1
charge -1
@<TRIPOS>BOND
     1    17     3    1
     2    16     2    1
     3     3     2   ar
     4     3     7   ar
     5     2     1   ar
     6     7     8   ar
     7     7     6   ar
     8     1    15    1
     9     1     4   ar
    10     8     9   ar
    11     6     4   ar
    12     6     5   ar
    13     4    18    1
    14     9     5   ar
    15     9    10    1
    16    22    11    1
    17    20    10    1
    18     5    23    1
    19    10    11    1
    20    10    19    1
    21    11    21    1
    22    11    12    1
    23    13    12   ar
    24    12    14   ar
