UH4
  -OEChem-02242320043D

 27 28  0     0  0  0  0  0  0999 V2000
    1.5720    1.2470   -0.2410 N   0  0  0  0  0  0  0  0  0  0  0  0
   -2.0190    0.8740   -0.0800 C   0  0  0  0  0  0  0  0  0  0  0  0
    0.3510    0.6840   -0.1440 C   0  0  0  0  0  0  0  0  0  0  0  0
    2.7190    0.4560   -0.1100 C   0  0  0  0  0  0  0  0  0  0  0  0
    2.7340   -0.8520   -0.5870 C   0  0  0  0  0  0  0  0  0  0  0  0
    3.8930   -1.5950   -0.4350 C   0  0  0  0  0  0  0  0  0  0  0  0
    3.8620    0.9660    0.4930 C   0  0  0  0  0  0  0  0  0  0  0  0
    0.2450   -0.5210   -0.0230 O   0  0  0  0  0  0  0  0  0  0  0  0
   -0.7520    1.4570   -0.1810 N   0  0  0  0  0  0  0  0  0  0  0  0
   -3.1820    1.5400   -0.1050 C   0  0  0  0  0  0  0  0  0  0  0  0
   -4.3090    0.7440    0.0110 C   0  0  0  0  0  0  0  0  0  0  0  0
   -2.3310   -0.8490    0.0910 S   0  0  0  0  0  0  0  0  0  0  0  0
   -4.0660   -0.5610    0.1290 C   0  0  0  0  0  0  0  0  0  0  0  0
   -5.1190   -1.6300    0.2690 C   0  0  0  0  0  0  0  0  0  0  0  0
    4.9460    0.2260    0.6130 N   0  0  0  0  0  0  0  0  0  0  0  0
    4.9890   -1.0190    0.1810 C   0  0  0  0  0  0  0  0  0  0  0  0
    1.6550    2.1990   -0.4050 H   0  0  0  0  0  0  0  0  0  0  0  0
    1.8630   -1.2770   -1.0640 H   0  0  0  0  0  0  0  0  0  0  0  0
    3.9400   -2.6130   -0.7930 H   0  0  0  0  0  0  0  0  0  0  0  0
    3.8620    1.9800    0.8660 H   0  0  0  0  0  0  0  0  0  0  0  0
   -0.6680    2.4190   -0.2770 H   0  0  0  0  0  0  0  0  0  0  0  0
   -3.2350    2.6140   -0.2070 H   0  0  0  0  0  0  0  0  0  0  0  0
   -5.3100    1.1500    0.0060 H   0  0  0  0  0  0  0  0  0  0  0  0
   -4.6390   -2.6060    0.3410 H   0  0  0  0  0  0  0  0  0  0  0  0
   -5.7060   -1.4470    1.1680 H   0  0  0  0  0  0  0  0  0  0  0  0
   -5.7740   -1.6110   -0.6030 H   0  0  0  0  0  0  0  0  0  0  0  0
    5.8960   -1.5920    0.2980 H   0  0  0  0  0  0  0  0  0  0  0  0
 15 16  2  0  0  0  0
  7 15  1  0  0  0  0
  6 16  1  0  0  0  0
  4  7  2  0  0  0  0
  5  6  2  0  0  0  0
  4  5  1  0  0  0  0
  1  4  1  0  0  0  0
  3  8  2  0  0  0  0
  1  3  1  0  0  0  0
  3  9  1  0  0  0  0
  2  9  1  0  0  0  0
  2 12  1  0  0  0  0
 12 13  1  0  0  0  0
  2 10  2  0  0  0  0
 13 14  1  0  0  0  0
 11 13  2  0  0  0  0
 10 11  1  0  0  0  0
  1 17  1  0  0  0  0
  5 18  1  0  0  0  0
  6 19  1  0  0  0  0
  7 20  1  0  0  0  0
  9 21  1  0  0  0  0
 10 22  1  0  0  0  0
 11 23  1  0  0  0  0
 14 24  1  0  0  0  0
 14 25  1  0  0  0  0
 14 26  1  0  0  0  0
 16 27  1  0  0  0  0
M  END
> <OPENEYE_ISO_SMILES>
Cc1ccc(s1)NC(=O)Nc2cccnc2

> <OPENEYE_INCHI>
InChI=1S/C11H11N3OS/c1-8-4-5-10(16-8)14-11(15)13-9-3-2-6-12-7-9/h2-7H,1H3,(H2,13,14,15)

> <OPENEYE_INCHIKEY>
OCXJDZBTSLHCNX-UHFFFAOYSA-N

> <FORMULA>
C11H11N3OS

$$$$
