YLM
  -OEChem-02242320043D

 64 65  0     1  0  0  0  0  0999 V2000
   -3.2750    0.8970    0.2950 C   0  0  1  0  0  0  0  0  0  0  0  0
   -3.6880   -0.0620    1.4120 C   0  0  0  0  0  0  0  0  0  0  0  0
   -4.3440   -1.3030    0.8030 C   0  0  1  0  0  0  0  0  0  0  0  0
   -4.7840   -2.2570    1.8900 C   0  0  0  0  0  0  0  0  0  0  0  0
   -6.5530   -2.1390    0.3900 C   0  0  0  0  0  0  0  0  0  0  0  0
   -5.6560   -0.9210    0.0790 C   0  0  0  0  0  0  0  0  0  0  0  0
    8.3080   -0.2010    1.2850 C   0  0  0  0  0  0  0  0  0  0  0  0
    2.4330   -0.3910   -0.9360 C   0  0  0  0  0  0  0  0  0  0  0  0
    0.0120   -0.6620   -0.8920 C   0  0  1  0  0  0  0  0  0  0  0  0
   -0.2530   -2.1400   -1.1860 C   0  0  0  0  0  0  0  0  0  0  0  0
   -1.5640   -2.2790   -1.9620 C   0  0  0  0  0  0  0  0  0  0  0  0
   -1.4070   -1.6460   -3.3460 C   0  0  0  0  0  0  0  0  0  0  0  0
   -1.9110   -3.7610   -2.1160 C   0  0  0  0  0  0  0  0  0  0  0  0
   -1.0820   -0.1220   -0.0070 C   0  0  0  0  0  0  0  0  0  0  0  0
   -2.7020    2.1770    0.9070 C   0  0  2  0  0  0  0  0  0  0  0  0
    4.8030   -0.2220   -1.1580 C   0  0  0  0  0  0  0  0  0  0  0  0
    6.0390   -0.2150   -0.2960 C   0  0  0  0  0  0  0  0  0  0  0  0
    6.5340    0.9800    0.1920 C   0  0  0  0  0  0  0  0  0  0  0  0
    7.6680    0.9880    0.9820 C   0  0  0  0  0  0  0  0  0  0  0  0
    7.8160   -1.3970    0.7900 C   0  0  0  0  0  0  0  0  0  0  0  0
    6.6820   -1.4030    0.0010 C   0  0  0  0  0  0  0  0  0  0  0  0
    9.4170   -0.1940    2.0570 F   0  0  0  0  0  0  0  0  0  0  0  0
    1.3020   -0.5220   -0.2130 N   0  0  0  0  0  0  0  0  0  0  0  0
   -2.2570    0.2600   -0.5450 N   0  0  0  0  0  0  0  0  0  0  0  0
   -6.0260   -2.7060    1.6370 N   0  0  0  0  0  0  0  0  0  0  0  0
    2.3730   -0.2960   -2.1460 O   0  0  0  0  0  0  0  0  0  0  0  0
   -4.1150   -2.5730    2.8510 O   0  0  0  0  0  0  0  0  0  0  0  0
   -3.6950    2.8000    1.7240 O   0  0  0  0  0  0  0  0  0  0  0  0
   -0.9050   -0.0310    1.1890 O   0  0  0  0  0  0  0  0  0  0  0  0
    3.6280   -0.3660   -0.3170 O   0  0  0  0  0  0  0  0  0  0  0  0
   -4.1450    1.1430   -0.3130 H   0  0  0  0  0  0  0  0  0  0  0  0
   -2.8060   -0.3600    1.9800 H   0  0  0  0  0  0  0  0  0  0  0  0
   -4.3960    0.4350    2.0750 H   0  0  0  0  0  0  0  0  0  0  0  0
   -3.6580   -1.7960    0.1140 H   0  0  0  0  0  0  0  0  0  0  0  0
   -7.5870   -1.8210    0.5280 H   0  0  0  0  0  0  0  0  0  0  0  0
   -6.4890   -2.8710   -0.4150 H   0  0  0  0  0  0  0  0  0  0  0  0
   -6.0800   -0.0070    0.4960 H   0  0  0  0  0  0  0  0  0  0  0  0
   -5.4940   -0.8190   -0.9940 H   0  0  0  0  0  0  0  0  0  0  0  0
    0.0310   -0.1040   -1.8280 H   0  0  0  0  0  0  0  0  0  0  0  0
    0.5660   -2.5450   -1.7800 H   0  0  0  0  0  0  0  0  0  0  0  0
   -0.3270   -2.6900   -0.2470 H   0  0  0  0  0  0  0  0  0  0  0  0
   -2.3630   -1.7730   -1.4190 H   0  0  0  0  0  0  0  0  0  0  0  0
   -0.6530   -2.1910   -3.9120 H   0  0  0  0  0  0  0  0  0  0  0  0
   -2.3590   -1.6880   -3.8750 H   0  0  0  0  0  0  0  0  0  0  0  0
   -1.0980   -0.6060   -3.2360 H   0  0  0  0  0  0  0  0  0  0  0  0
   -2.0230   -4.2130   -1.1300 H   0  0  0  0  0  0  0  0  0  0  0  0
   -2.8450   -3.8600   -2.6690 H   0  0  0  0  0  0  0  0  0  0  0  0
   -1.1120   -4.2670   -2.6580 H   0  0  0  0  0  0  0  0  0  0  0  0
   -2.2100    3.3140   -0.4180 S   0  0  0  0  0  0  0  0  0  0  0  0
   -1.8320    1.9310    1.5160 H   0  0  0  0  0  0  0  0  0  0  0  0
    4.7410    0.7140   -1.7120 H   0  0  0  0  0  0  0  0  0  0  0  0
    4.8530   -1.0560   -1.8580 H   0  0  0  0  0  0  0  0  0  0  0  0
    6.0340    1.9080   -0.0450 H   0  0  0  0  0  0  0  0  0  0  0  0
    8.0530    1.9220    1.3640 H   0  0  0  0  0  0  0  0  0  0  0  0
    8.3180   -2.3250    1.0220 H   0  0  0  0  0  0  0  0  0  0  0  0
    6.2950   -2.3360   -0.3810 H   0  0  0  0  0  0  0  0  0  0  0  0
    1.3440   -0.5250    0.7560 H   0  0  0  0  0  0  0  0  0  0  0  0
   -2.4300    0.1130   -1.4880 H   0  0  0  0  0  0  0  0  0  0  0  0
   -6.5110   -3.3240    2.2050 H   0  0  0  0  0  0  0  0  0  0  0  0
   -4.0060    2.2480    2.4550 H   0  0  0  0  0  0  0  0  0  0  0  0
   -3.2660    3.4760   -1.3540 O   0  0  0  0  0  0  0  0  0  0  0  0
   -1.5270    4.4390    0.1180 O   0  0  0  0  0  0  0  0  0  0  0  0
   -1.1380    2.5570   -1.1890 O   0  0  0  0  0  0  0  0  0  0  0  0
   -0.7730    3.0460   -1.9390 H   0  0  0  0  0  0  0  0  0  0  0  0
  4 27  2  0  0  0  0
 18 19  2  0  0  0  0
 17 18  1  0  0  0  0
  7 19  1  0  0  0  0
 16 17  1  0  0  0  0
 16 30  1  0  0  0  0
 17 21  2  0  0  0  0
  4 25  1  0  0  0  0
  3  4  1  0  0  0  0
  7 22  1  0  0  0  0
  7 20  2  0  0  0  0
  5 25  1  0  0  0  0
  8 26  2  0  0  0  0
 20 21  1  0  0  0  0
  8 30  1  0  0  0  0
  8 23  1  0  0  0  0
  2  3  1  0  0  0  0
  3  6  1  0  0  0  0
  5  6  1  0  0  0  0
 11 13  1  0  0  0  0
  1  2  1  0  0  0  0
  9 23  1  0  0  0  0
  9 14  1  0  0  0  0
  9 10  1  0  0  0  0
 14 24  1  0  0  0  0
  1 24  1  0  0  0  0
 14 29  2  0  0  0  0
 10 11  1  0  0  0  0
 11 12  1  0  0  0  0
  1 15  1  0  0  0  0
 15 28  1  0  0  0  0
  1 31  1  0  0  0  0
  2 32  1  0  0  0  0
  2 33  1  0  0  0  0
  3 34  1  0  0  0  0
  5 35  1  0  0  0  0
  5 36  1  0  0  0  0
  6 37  1  0  0  0  0
  6 38  1  0  0  0  0
  9 39  1  0  0  0  0
 10 40  1  0  0  0  0
 10 41  1  0  0  0  0
 11 42  1  0  0  0  0
 12 43  1  0  0  0  0
 12 44  1  0  0  0  0
 12 45  1  0  0  0  0
 13 46  1  0  0  0  0
 13 47  1  0  0  0  0
 13 48  1  0  0  0  0
 15 49  1  0  0  0  0
 15 50  1  0  0  0  0
 16 51  1  0  0  0  0
 16 52  1  0  0  0  0
 18 53  1  0  0  0  0
 19 54  1  0  0  0  0
 20 55  1  0  0  0  0
 21 56  1  0  0  0  0
 23 57  1  0  0  0  0
 24 58  1  0  0  0  0
 25 59  1  0  0  0  0
 28 60  1  0  0  0  0
 49 61  2  0  0  0  0
 49 62  2  0  0  0  0
 49 63  1  0  0  0  0
 63 64  1  0  0  0  0
M  END
> <OPENEYE_ISO_SMILES>
CC(C)C[C@@H](C(=O)N[C@@H](C[C@@H]1CCNC1=O)[C@H](O)S(=O)(=O)O)NC(=O)OCc2ccc(cc2)F

> <OPENEYE_INCHI>
InChI=1S/C21H30FN3O8S/c1-12(2)9-16(25-21(29)33-11-13-3-5-15(22)6-4-13)19(27)24-17(20(28)34(30,31)32)10-14-7-8-23-18(14)26/h3-6,12,14,16-17,20,28H,7-11H2,1-2H3,(H,23,26)(H,24,27)(H,25,29)(H,30,31,32)/t14-,16-,17-,20+/m0/s1

> <OPENEYE_INCHIKEY>
SXLHHGJXSMBQOQ-JWWIWJDOSA-N

> <FORMULA>
C21H30FN3O8S

$$$$
