YLS
  -OEChem-02242320043D

 64 65  0     1  0  0  0  0  0999 V2000
    2.8510    0.4940   -1.1100 C   0  0  1  0  0  0  0  0  0  0  0  0
    4.0250    1.1770   -0.4050 C   0  0  0  0  0  0  0  0  0  0  0  0
    3.5210    2.4110    0.3450 C   0  0  1  0  0  0  0  0  0  0  0  0
    4.6570    3.0800    1.0870 C   0  0  0  0  0  0  0  0  0  0  0  0
    3.3700   -0.6750   -1.9490 C   0  0  1  0  0  0  0  0  0  0  0  0
    3.0330    3.4880   -0.6510 C   0  0  0  0  0  0  0  0  0  0  0  0
    3.4770    4.7910    0.0500 C   0  0  0  0  0  0  0  0  0  0  0  0
   -8.3410   -0.6440   -0.4980 C   0  0  0  0  0  0  0  0  0  0  0  0
   -7.1620   -0.8060    0.2050 C   0  0  0  0  0  0  0  0  0  0  0  0
   -6.3520    0.2860    0.4580 C   0  0  0  0  0  0  0  0  0  0  0  0
   -5.0670    0.1080    1.2240 C   0  0  0  0  0  0  0  0  0  0  0  0
   -2.7610   -0.3590    0.8230 C   0  0  0  0  0  0  0  0  0  0  0  0
   -0.3630   -0.7160    0.5780 C   0  0  1  0  0  0  0  0  0  0  0  0
   -0.0940   -2.1550    1.0250 C   0  0  0  0  0  0  0  0  0  0  0  0
    1.2260   -2.2110    1.7950 C   0  0  0  0  0  0  0  0  0  0  0  0
    1.0910   -1.4210    3.0980 C   0  0  0  0  0  0  0  0  0  0  0  0
    1.5670   -3.6680    2.1150 C   0  0  0  0  0  0  0  0  0  0  0  0
    0.6450   -0.3190   -0.4700 C   0  0  0  0  0  0  0  0  0  0  0  0
   -8.7090    0.6110   -0.9520 C   0  0  0  0  0  0  0  0  0  0  0  0
   -7.8970    1.7040   -0.6980 C   0  0  0  0  0  0  0  0  0  0  0  0
   -6.7210    1.5400    0.0090 C   0  0  0  0  0  0  0  0  0  0  0  0
   -9.8590    0.7700   -1.6440 F   0  0  0  0  0  0  0  0  0  0  0  0
   -1.7130   -0.6230    0.0170 N   0  0  0  0  0  0  0  0  0  0  0  0
    1.9050   -0.0060   -0.1090 N   0  0  0  0  0  0  0  0  0  0  0  0
    4.6120    4.4110    0.9000 N   0  0  0  0  0  0  0  0  0  0  0  0
   -2.6000   -0.2890    2.0260 O   0  0  0  0  0  0  0  0  0  0  0  0
    5.4880    2.5000    1.7540 O   0  0  0  0  0  0  0  0  0  0  0  0
    4.3780   -0.2060   -2.8470 O   0  0  0  0  0  0  0  0  0  0  0  0
    0.3220   -0.2820   -1.6380 O   0  0  0  0  0  0  0  0  0  0  0  0
   -3.9850   -0.1720    0.2960 O   0  0  0  0  0  0  0  0  0  0  0  0
    2.3490    1.2120   -1.7580 H   0  0  0  0  0  0  0  0  0  0  0  0
    4.4790    0.4820    0.3010 H   0  0  0  0  0  0  0  0  0  0  0  0
    4.7660    1.4790   -1.1450 H   0  0  0  0  0  0  0  0  0  0  0  0
    2.7210    2.1380    1.0330 H   0  0  0  0  0  0  0  0  0  0  0  0
    2.5470   -1.1060   -2.5200 H   0  0  0  0  0  0  0  0  0  0  0  0
    4.0750   -1.9390   -0.8550 S   0  0  0  0  0  0  0  0  0  0  0  0
    3.5260    3.3780   -1.6180 H   0  0  0  0  0  0  0  0  0  0  0  0
    1.9490    3.4550   -0.7620 H   0  0  0  0  0  0  0  0  0  0  0  0
    3.7900    5.5290   -0.6880 H   0  0  0  0  0  0  0  0  0  0  0  0
    2.6650    5.1880    0.6580 H   0  0  0  0  0  0  0  0  0  0  0  0
   -8.9730   -1.4970   -0.6960 H   0  0  0  0  0  0  0  0  0  0  0  0
   -6.8730   -1.7850    0.5560 H   0  0  0  0  0  0  0  0  0  0  0  0
   -4.8440    1.0210    1.7760 H   0  0  0  0  0  0  0  0  0  0  0  0
   -5.1710   -0.7230    1.9220 H   0  0  0  0  0  0  0  0  0  0  0  0
   -0.2780   -0.0480    1.4350 H   0  0  0  0  0  0  0  0  0  0  0  0
   -0.9060   -2.4920    1.6690 H   0  0  0  0  0  0  0  0  0  0  0  0
   -0.0330   -2.8010    0.1490 H   0  0  0  0  0  0  0  0  0  0  0  0
    2.0200   -1.7780    1.1870 H   0  0  0  0  0  0  0  0  0  0  0  0
    0.7810   -0.4000    2.8730 H   0  0  0  0  0  0  0  0  0  0  0  0
    0.3450   -1.8950    3.7350 H   0  0  0  0  0  0  0  0  0  0  0  0
    2.0510   -1.4040    3.6140 H   0  0  0  0  0  0  0  0  0  0  0  0
    1.6640   -4.2310    1.1870 H   0  0  0  0  0  0  0  0  0  0  0  0
    2.5080   -3.7090    2.6640 H   0  0  0  0  0  0  0  0  0  0  0  0
    0.7740   -4.1020    2.7230 H   0  0  0  0  0  0  0  0  0  0  0  0
   -8.1830    2.6830   -1.0530 H   0  0  0  0  0  0  0  0  0  0  0  0
   -6.0870    2.3920    0.2070 H   0  0  0  0  0  0  0  0  0  0  0  0
   -1.8530   -0.7510   -0.9340 H   0  0  0  0  0  0  0  0  0  0  0  0
    2.1850   -0.1110    0.8130 H   0  0  0  0  0  0  0  0  0  0  0  0
    5.2470    5.0380    1.2790 H   0  0  0  0  0  0  0  0  0  0  0  0
    5.1420    0.1910   -2.4070 H   0  0  0  0  0  0  0  0  0  0  0  0
    5.1990   -1.4230   -0.1570 O   0  0  0  0  0  0  0  0  0  0  0  0
    3.0440   -2.6370   -0.1700 O   0  0  0  0  0  0  0  0  0  0  0  0
    4.6640   -2.9750   -1.8020 O   0  0  0  0  0  0  0  0  0  0  0  0
    5.0820   -3.7240   -1.3550 H   0  0  0  0  0  0  0  0  0  0  0  0
  4 27  2  0  0  0  0
  4 25  1  0  0  0  0
  3  4  1  0  0  0  0
  7 25  1  0  0  0  0
 12 26  2  0  0  0  0
 20 21  2  0  0  0  0
 10 21  1  0  0  0  0
 10 11  1  0  0  0  0
 11 30  1  0  0  0  0
 19 20  1  0  0  0  0
  2  3  1  0  0  0  0
  3  6  1  0  0  0  0
  9 10  2  0  0  0  0
 12 30  1  0  0  0  0
 12 23  1  0  0  0  0
  6  7  1  0  0  0  0
 15 17  1  0  0  0  0
  1  2  1  0  0  0  0
 13 23  1  0  0  0  0
 19 22  1  0  0  0  0
  8 19  2  0  0  0  0
  1 24  1  0  0  0  0
 18 24  1  0  0  0  0
 13 18  1  0  0  0  0
 13 14  1  0  0  0  0
  8  9  1  0  0  0  0
 14 15  1  0  0  0  0
 15 16  1  0  0  0  0
  1  5  1  0  0  0  0
 18 29  2  0  0  0  0
  5 28  1  0  0  0  0
  1 31  1  0  0  0  0
  2 32  1  0  0  0  0
  2 33  1  0  0  0  0
  3 34  1  0  0  0  0
  5 35  1  0  0  0  0
  5 36  1  0  0  0  0
  6 37  1  0  0  0  0
  6 38  1  0  0  0  0
  7 39  1  0  0  0  0
  7 40  1  0  0  0  0
  8 41  1  0  0  0  0
  9 42  1  0  0  0  0
 11 43  1  0  0  0  0
 11 44  1  0  0  0  0
 13 45  1  0  0  0  0
 14 46  1  0  0  0  0
 14 47  1  0  0  0  0
 15 48  1  0  0  0  0
 16 49  1  0  0  0  0
 16 50  1  0  0  0  0
 16 51  1  0  0  0  0
 17 52  1  0  0  0  0
 17 53  1  0  0  0  0
 17 54  1  0  0  0  0
 20 55  1  0  0  0  0
 21 56  1  0  0  0  0
 23 57  1  0  0  0  0
 24 58  1  0  0  0  0
 25 59  1  0  0  0  0
 28 60  1  0  0  0  0
 36 61  2  0  0  0  0
 36 62  2  0  0  0  0
 36 63  1  0  0  0  0
 63 64  1  0  0  0  0
M  END
> <OPENEYE_ISO_SMILES>
CC(C)C[C@@H](C(=O)N[C@@H](C[C@@H]1CCNC1=O)[C@@H](O)S(=O)(=O)O)NC(=O)OCc2ccc(cc2)F

> <OPENEYE_INCHI>
InChI=1S/C21H30FN3O8S/c1-12(2)9-16(25-21(29)33-11-13-3-5-15(22)6-4-13)19(27)24-17(20(28)34(30,31)32)10-14-7-8-23-18(14)26/h3-6,12,14,16-17,20,28H,7-11H2,1-2H3,(H,23,26)(H,24,27)(H,25,29)(H,30,31,32)/t14-,16-,17-,20-/m0/s1

> <OPENEYE_INCHIKEY>
SXLHHGJXSMBQOQ-VERUCKTNSA-N

> <FORMULA>
C21H30FN3O8S

$$$$
