H6R
  -OEChem-02242320023D

 51 52  0     1  0  0  0  0  0999 V2000
    2.2000   -0.2690   -0.5480 C   0  0  0  0  0  0  0  0  0  0  0  0
    2.0570   -0.2410   -1.7560 O   0  0  0  0  0  0  0  0  0  0  0  0
    3.4990    0.0600    0.0440 C   0  0  0  0  0  0  0  0  0  0  0  0
    4.5380    0.3870   -0.7500 C   0  0  0  0  0  0  0  0  0  0  0  0
    5.8430    0.7170   -0.1560 C   0  0  0  0  0  0  0  0  0  0  0  0
    6.0110    0.6860    1.2320 C   0  0  0  0  0  0  0  0  0  0  0  0
    7.2370    0.9960    1.7820 C   0  0  0  0  0  0  0  0  0  0  0  0
    8.3000    1.3370    0.9640 C   0  0  0  0  0  0  0  0  0  0  0  0
    8.1420    1.3700   -0.4110 C   0  0  0  0  0  0  0  0  0  0  0  0
    6.9240    1.0570   -0.9760 C   0  0  0  0  0  0  0  0  0  0  0  0
    1.6110   -2.8350   -2.6550 C   0  0  0  0  0  0  0  0  0  0  0  0
    0.8250   -2.6430   -1.8050 C   0  0  0  0  0  0  0  0  0  0  0  0
   -0.1610   -2.4030   -0.7380 C   0  0  0  0  0  0  0  0  0  0  0  0
   -0.1380   -0.9240   -0.3460 C   0  0  2  0  0  0  0  0  0  0  0  0
    1.1610   -0.5960    0.2460 N   0  0  0  0  0  0  0  0  0  0  0  0
   -1.2300   -0.6530    0.6570 C   0  0  0  0  0  0  0  0  0  0  0  0
   -0.9500   -0.2280    1.7580 O   0  0  0  0  0  0  0  0  0  0  0  0
   -6.5370    0.4290   -1.7280 O   0  0  0  0  0  0  0  0  0  0  0  0
   -5.9590    1.2570   -1.0560 C   0  0  0  0  0  0  0  0  0  0  0  0
   -6.3260    2.5450   -0.9370 N   0  0  0  0  0  0  0  0  0  0  0  0
   -5.4100    3.2810   -0.0570 C   0  0  0  0  0  0  0  0  0  0  0  0
   -4.6370    2.2000    0.7310 C   0  0  0  0  0  0  0  0  0  0  0  0
   -4.7230    0.9890   -0.2250 C   0  0  1  0  0  0  0  0  0  0  0  0
   -4.8820   -0.3100    0.5680 C   0  0  0  0  0  0  0  0  0  0  0  0
   -3.5780   -0.6200    1.3050 C   0  0  2  0  0  0  0  0  0  0  0  0
   -2.5170   -0.8840    0.3300 N   0  0  0  0  0  0  0  0  0  0  0  0
   -3.7710   -1.8340    2.1780 C   0  0  0  0  0  0  0  0  0  0  0  0
   -3.0920   -2.8170    2.0030 O   0  0  0  0  0  0  0  0  0  0  0  0
    3.6240    0.0390    1.1160 H   0  0  0  0  0  0  0  0  0  0  0  0
    4.4120    0.4070   -1.8230 H   0  0  0  0  0  0  0  0  0  0  0  0
    5.1830    0.4200    1.8720 H   0  0  0  0  0  0  0  0  0  0  0  0
    7.3690    0.9720    2.8540 H   0  0  0  0  0  0  0  0  0  0  0  0
    9.2580    1.5790    1.4000 H   0  0  0  0  0  0  0  0  0  0  0  0
    8.9760    1.6380   -1.0430 H   0  0  0  0  0  0  0  0  0  0  0  0
    6.8030    1.0790   -2.0490 H   0  0  0  0  0  0  0  0  0  0  0  0
    2.3140   -3.0060   -3.4160 H   0  0  0  0  0  0  0  0  0  0  0  0
   -1.1560   -2.6680   -1.0960 H   0  0  0  0  0  0  0  0  0  0  0  0
    0.0870   -3.0130    0.1310 H   0  0  0  0  0  0  0  0  0  0  0  0
   -0.2990   -0.3110   -1.2330 H   0  0  0  0  0  0  0  0  0  0  0  0
    1.2740   -0.6140    1.2090 H   0  0  0  0  0  0  0  0  0  0  0  0
   -7.0960    2.9370   -1.3760 H   0  0  0  0  0  0  0  0  0  0  0  0
   -4.7200    3.8820   -0.6490 H   0  0  0  0  0  0  0  0  0  0  0  0
   -5.9730    3.9160    0.6270 H   0  0  0  0  0  0  0  0  0  0  0  0
   -3.6020    2.5000    0.8920 H   0  0  0  0  0  0  0  0  0  0  0  0
   -5.1300    1.9810    1.6780 H   0  0  0  0  0  0  0  0  0  0  0  0
   -3.8390    0.9440   -0.8600 H   0  0  0  0  0  0  0  0  0  0  0  0
   -5.6910   -0.1980    1.2910 H   0  0  0  0  0  0  0  0  0  0  0  0
   -5.1170   -1.1260   -0.1150 H   0  0  0  0  0  0  0  0  0  0  0  0
   -3.2990    0.2320    1.9250 H   0  0  0  0  0  0  0  0  0  0  0  0
   -2.7410   -1.2240   -0.5500 H   0  0  0  0  0  0  0  0  0  0  0  0
   -4.5170   -1.8240    2.9590 H   0  0  0  0  0  0  0  0  0  0  0  0
 19 20  1  0  0  0  0
 20 21  1  0  0  0  0
 18 19  2  0  0  0  0
 19 23  1  0  0  0  0
 21 22  1  0  0  0  0
 22 23  1  0  0  0  0
 27 28  2  0  0  0  0
 23 24  1  0  0  0  0
 24 25  1  0  0  0  0
 25 27  1  0  0  0  0
 25 26  1  0  0  0  0
 16 26  1  0  0  0  0
 16 17  2  0  0  0  0
 14 16  1  0  0  0  0
  1  2  2  0  0  0  0
  4  5  1  0  0  0  0
  3  4  2  0  0  0  0
  1 15  1  0  0  0  0
  1  3  1  0  0  0  0
  5  6  2  0  0  0  0
  6  7  1  0  0  0  0
 14 15  1  0  0  0  0
 13 14  1  0  0  0  0
  5 10  1  0  0  0  0
  7  8  2  0  0  0  0
 12 13  1  0  0  0  0
  9 10  2  0  0  0  0
  8  9  1  0  0  0  0
 11 12  3  0  0  0  0
  4 30  1  0  0  0  0
  7 32  1  0  0  0  0
  9 34  1  0  0  0  0
 27 51  1  0  0  0  0
 24 47  1  0  0  0  0
 24 48  1  0  0  0  0
 22 44  1  0  0  0  0
 22 45  1  0  0  0  0
 14 39  1  0  0  0  0
 13 37  1  0  0  0  0
 13 38  1  0  0  0  0
 11 36  1  0  0  0  0
  3 29  1  0  0  0  0
  6 31  1  0  0  0  0
  8 33  1  0  0  0  0
 10 35  1  0  0  0  0
 25 49  1  0  0  0  0
 23 46  1  0  0  0  0
 21 42  1  0  0  0  0
 21 43  1  0  0  0  0
 15 40  1  0  0  0  0
 26 50  1  0  0  0  0
 20 41  1  0  0  0  0
M  END
> <OPENEYE_ISO_SMILES>
C#CC[C@@H](C(=O)N[C@@H](C[C@@H]1CCNC1=O)C=O)NC(=O)/C=C/c2ccccc2

> <OPENEYE_INCHI>
InChI=1S/C21H23N3O4/c1-2-6-18(24-19(26)10-9-15-7-4-3-5-8-15)21(28)23-17(14-25)13-16-11-12-22-20(16)27/h1,3-5,7-10,14,16-18H,6,11-13H2,(H,22,27)(H,23,28)(H,24,26)/b10-9+/t16-,17-,18-/m0/s1

> <OPENEYE_INCHIKEY>
QZMKOYAKHMOPIL-GIGACSBGSA-N

> <FORMULA>
C21H23N3O4

$$$$
