5Z3
  -OEChem-02242320013D

 41 43  0     0  0  0  0  0  0999 V2000
    5.0930   -0.1700    0.9370 C   0  0  0  0  0  0  0  0  0  0  0  0
    1.7350    0.1890    1.0900 C   0  0  0  0  0  0  0  0  0  0  0  0
   -1.7820    0.9840    0.2720 C   0  0  0  0  0  0  0  0  0  0  0  0
    1.4400    2.6890    0.8890 C   0  0  0  0  0  0  0  0  0  0  0  0
    0.0890    2.4250    0.2160 C   0  0  0  0  0  0  0  0  0  0  0  0
    0.3720    0.0240    0.4090 C   0  0  0  0  0  0  0  0  0  0  0  0
    4.3380    0.3870   -0.0450 C   0  0  0  0  0  0  0  0  0  0  0  0
   -2.3640    1.9210   -0.5720 C   0  0  0  0  0  0  0  0  0  0  0  0
   -3.6500    1.7270   -1.0360 C   0  0  0  0  0  0  0  0  0  0  0  0
   -4.3590    0.6000   -0.6610 C   0  0  0  0  0  0  0  0  0  0  0  0
   -3.7830   -0.3360    0.1810 C   0  0  0  0  0  0  0  0  0  0  0  0
   -2.4970   -0.1470    0.6470 C   0  0  0  0  0  0  0  0  0  0  0  0
    5.0370   -1.2960   -1.5610 C   0  0  0  0  0  0  0  0  0  0  0  0
    3.5400    1.6080    0.2260 C   0  0  0  0  0  0  0  0  0  0  0  0
    5.8720   -1.3730    0.6210 C   0  0  0  0  0  0  0  0  0  0  0  0
   -4.5590   -1.5620    0.5880 C   0  0  0  0  0  0  0  0  0  0  0  0
   -3.7730   -2.3510    1.4340 F   0  0  0  0  0  0  0  0  0  0  0  0
   -5.7230   -1.1750    1.2590 F   0  0  0  0  0  0  0  0  0  0  0  0
   -4.9000   -2.2970   -0.5520 F   0  0  0  0  0  0  0  0  0  0  0  0
    4.3210   -0.1910   -1.2960 N   0  0  0  0  0  0  0  0  0  0  0  0
    5.8100   -1.8790   -0.6280 N   0  0  0  0  0  0  0  0  0  0  0  0
    2.2890    1.5000    0.7150 N   0  0  0  0  0  0  0  0  0  0  0  0
   -0.4790    1.1750    0.7380 N   0  0  0  0  0  0  0  0  0  0  0  0
    4.9940   -1.7750   -2.6780 O   0  0  0  0  0  0  0  0  0  0  0  0
    6.5620   -1.9050    1.4710 O   0  0  0  0  0  0  0  0  0  0  0  0
    4.0140    2.7050    0.0070 O   0  0  0  0  0  0  0  0  0  0  0  0
   -5.9760    0.3590   -1.2460 Cl  0  0  0  0  0  0  0  0  0  0  0  0
    5.1230    0.2640    1.9260 H   0  0  0  0  0  0  0  0  0  0  0  0
    1.6120    0.1390    2.1720 H   0  0  0  0  0  0  0  0  0  0  0  0
    2.4070   -0.6030    0.7610 H   0  0  0  0  0  0  0  0  0  0  0  0
    1.9190    3.5510    0.4240 H   0  0  0  0  0  0  0  0  0  0  0  0
    1.2890    2.8820    1.9510 H   0  0  0  0  0  0  0  0  0  0  0  0
   -0.5900    3.2500    0.4290 H   0  0  0  0  0  0  0  0  0  0  0  0
    0.2300    2.3380   -0.8610 H   0  0  0  0  0  0  0  0  0  0  0  0
    0.5090   -0.0290   -0.6710 H   0  0  0  0  0  0  0  0  0  0  0  0
   -0.1020   -0.8920    0.7610 H   0  0  0  0  0  0  0  0  0  0  0  0
   -1.8100    2.8010   -0.8650 H   0  0  0  0  0  0  0  0  0  0  0  0
   -4.1020    2.4550   -1.6920 H   0  0  0  0  0  0  0  0  0  0  0  0
   -2.0470   -0.8770    1.3040 H   0  0  0  0  0  0  0  0  0  0  0  0
    3.7820    0.2070   -1.9970 H   0  0  0  0  0  0  0  0  0  0  0  0
    6.3180   -2.6740   -0.8520 H   0  0  0  0  0  0  0  0  0  0  0  0
 15 25  2  0  0  0  0
  1 15  1  0  0  0  0
 15 21  1  0  0  0  0
  1  7  2  0  0  0  0
 13 21  1  0  0  0  0
  7 20  1  0  0  0  0
  7 14  1  0  0  0  0
 16 19  1  0  0  0  0
 16 18  1  0  0  0  0
 13 20  1  0  0  0  0
 13 24  2  0  0  0  0
 14 26  2  0  0  0  0
 14 22  1  0  0  0  0
 11 16  1  0  0  0  0
 16 17  1  0  0  0  0
 11 12  2  0  0  0  0
  3 12  1  0  0  0  0
  4 22  1  0  0  0  0
  2 22  1  0  0  0  0
  4  5  1  0  0  0  0
  5 23  1  0  0  0  0
 10 11  1  0  0  0  0
  3 23  1  0  0  0  0
  6 23  1  0  0  0  0
  3  8  2  0  0  0  0
  2  6  1  0  0  0  0
 10 27  1  0  0  0  0
  9 10  2  0  0  0  0
  8  9  1  0  0  0  0
  1 28  1  0  0  0  0
  2 29  1  0  0  0  0
  2 30  1  0  0  0  0
  4 31  1  0  0  0  0
  4 32  1  0  0  0  0
  5 33  1  0  0  0  0
  5 34  1  0  0  0  0
  6 35  1  0  0  0  0
  6 36  1  0  0  0  0
  8 37  1  0  0  0  0
  9 38  1  0  0  0  0
 12 39  1  0  0  0  0
 20 40  1  0  0  0  0
 21 41  1  0  0  0  0
M  END
> <OPENEYE_ISO_SMILES>
c1cc(c(cc1N2CCN(CC2)C(=O)c3cc(=O)[nH]c(=O)[nH]3)C(F)(F)F)Cl

> <OPENEYE_INCHI>
InChI=1S/C16H14ClF3N4O3/c17-11-2-1-9(7-10(11)16(18,19)20)23-3-5-24(6-4-23)14(26)12-8-13(25)22-15(27)21-12/h1-2,7-8H,3-6H2,(H2,21,22,25,27)

> <OPENEYE_INCHIKEY>
CVDMNVBBLCPUMH-UHFFFAOYSA-N

> <FORMULA>
C16H14ClF3N4O3

$$$$
