VLU
  -OEChem-02242320043D

 74 75  0     1  0  0  0  0  0999 V2000
   -0.7670   -0.3120   -0.3600 C   0  0  0  0  0  0  0  0  0  0  0  0
    1.6600   -0.0920   -0.3370 C   0  0  1  0  0  0  0  0  0  0  0  0
    1.9850    0.7340   -1.5830 C   0  0  0  0  0  0  0  0  0  0  0  0
    1.0180    0.3630   -2.7090 C   0  0  0  0  0  0  0  0  0  0  0  0
    1.2620    1.2750   -3.9130 C   0  0  0  0  0  0  0  0  0  0  0  0
    1.2460   -1.0940   -3.1180 C   0  0  0  0  0  0  0  0  0  0  0  0
    2.6870    0.1830    0.7300 C   0  0  0  0  0  0  0  0  0  0  0  0
    4.9870    0.1890    1.5350 C   0  0  1  0  0  0  0  0  0  0  0  0
    6.2030   -0.7140    1.3180 C   0  0  0  0  0  0  0  0  0  0  0  0
    5.7950   -2.1750    1.5150 C   0  0  1  0  0  0  0  0  0  0  0  0
    4.8310   -2.6070    0.4320 C   0  0  0  0  0  0  0  0  0  0  0  0
    6.8960   -3.4910   -0.1610 C   0  0  0  0  0  0  0  0  0  0  0  0
    7.0150   -3.1070    1.3310 C   0  0  0  0  0  0  0  0  0  0  0  0
    5.4200    1.6550    1.4610 C   0  0  2  0  0  0  0  0  0  0  0  0
   -3.1250   -0.6510   -0.5050 C   0  0  0  0  0  0  0  0  0  0  0  0
   -4.4170   -0.1470    0.1410 C   0  0  0  0  0  0  0  0  0  0  0  0
   -4.3870   -0.4440    1.6410 C   0  0  0  0  0  0  0  0  0  0  0  0
   -4.5420    1.3620   -0.0780 C   0  0  0  0  0  0  0  0  0  0  0  0
   -7.2150   -0.2000    0.1520 C   0  0  0  0  0  0  0  0  0  0  0  0
   -7.0120    0.7290    1.1660 C   0  0  0  0  0  0  0  0  0  0  0  0
   -8.0940    1.3480    1.7600 C   0  0  0  0  0  0  0  0  0  0  0  0
   -9.3790    1.0440    1.3490 C   0  0  0  0  0  0  0  0  0  0  0  0
   -9.5860    0.1190    0.3400 C   0  0  0  0  0  0  0  0  0  0  0  0
   -8.5080   -0.5040   -0.2590 C   0  0  0  0  0  0  0  0  0  0  0  0
    0.3310    0.2750    0.1580 N   0  0  0  0  0  0  0  0  0  0  0  0
    3.9880   -0.0790    0.4970 N   0  0  0  0  0  0  0  0  0  0  0  0
    5.4720   -3.3460   -0.4890 N   0  0  0  0  0  0  0  0  0  0  0  0
   -0.6540   -1.1450   -1.2370 O   0  0  0  0  0  0  0  0  0  0  0  0
    3.6520   -2.3270    0.4000 O   0  0  0  0  0  0  0  0  0  0  0  0
    4.3100    2.4960    1.7780 O   0  0  0  0  0  0  0  0  0  0  0  0
    2.3430    0.6410    1.8000 O   0  0  0  0  0  0  0  0  0  0  0  0
   -1.9880    0.0210    0.0990 O   0  0  0  0  0  0  0  0  0  0  0  0
   -5.8370   -0.9870   -0.6140 S   0  0  0  0  0  0  0  0  0  0  0  0
  -11.2010   -0.2590   -0.1720 Cl  0  0  0  0  0  0  0  0  0  0  0  0
    6.0020    2.0290   -0.2160 S   0  0  0  0  0  0  0  0  0  0  0  0
    1.6740   -1.1520   -0.5900 H   0  0  0  0  0  0  0  0  0  0  0  0
    1.8850    1.7950   -1.3530 H   0  0  0  0  0  0  0  0  0  0  0  0
    3.0080    0.5270   -1.9000 H   0  0  0  0  0  0  0  0  0  0  0  0
   -0.0080    0.4860   -2.3610 H   0  0  0  0  0  0  0  0  0  0  0  0
    2.2870    1.1510   -4.2600 H   0  0  0  0  0  0  0  0  0  0  0  0
    0.5720    1.0100   -4.7140 H   0  0  0  0  0  0  0  0  0  0  0  0
    1.0720   -1.7430   -2.2600 H   0  0  0  0  0  0  0  0  0  0  0  0
    0.5570   -1.3580   -3.9190 H   0  0  0  0  0  0  0  0  0  0  0  0
    2.2720   -1.2170   -3.4650 H   0  0  0  0  0  0  0  0  0  0  0  0
    4.5550   -0.0130    2.5150 H   0  0  0  0  0  0  0  0  0  0  0  0
    6.5810   -0.5760    0.3050 H   0  0  0  0  0  0  0  0  0  0  0  0
    6.9820   -0.4540    2.0350 H   0  0  0  0  0  0  0  0  0  0  0  0
    5.3500   -2.3160    2.5000 H   0  0  0  0  0  0  0  0  0  0  0  0
    7.4950   -2.8170   -0.7730 H   0  0  0  0  0  0  0  0  0  0  0  0
    7.2140   -4.5230   -0.3110 H   0  0  0  0  0  0  0  0  0  0  0  0
    7.9460   -2.5730    1.5230 H   0  0  0  0  0  0  0  0  0  0  0  0
    6.9330   -3.9870    1.9680 H   0  0  0  0  0  0  0  0  0  0  0  0
    6.2260    1.8320    2.1730 H   0  0  0  0  0  0  0  0  0  0  0  0
   -3.0360   -1.7270   -0.3490 H   0  0  0  0  0  0  0  0  0  0  0  0
   -3.1460   -0.4400   -1.5740 H   0  0  0  0  0  0  0  0  0  0  0  0
   -3.7520    0.2850    2.1430 H   0  0  0  0  0  0  0  0  0  0  0  0
   -5.3980   -0.3830    2.0440 H   0  0  0  0  0  0  0  0  0  0  0  0
   -3.9900   -1.4460    1.8060 H   0  0  0  0  0  0  0  0  0  0  0  0
   -4.3530    1.5940   -1.1270 H   0  0  0  0  0  0  0  0  0  0  0  0
   -5.5470    1.6860    0.1900 H   0  0  0  0  0  0  0  0  0  0  0  0
   -3.8130    1.8810    0.5450 H   0  0  0  0  0  0  0  0  0  0  0  0
   -6.0090    0.9660    1.4880 H   0  0  0  0  0  0  0  0  0  0  0  0
   -7.9370    2.0700    2.5480 H   0  0  0  0  0  0  0  0  0  0  0  0
  -10.2230    1.5300    1.8160 H   0  0  0  0  0  0  0  0  0  0  0  0
   -8.6690   -1.2220   -1.0490 H   0  0  0  0  0  0  0  0  0  0  0  0
    0.2400    0.9390    0.8580 H   0  0  0  0  0  0  0  0  0  0  0  0
    4.2640   -0.4440   -0.3580 H   0  0  0  0  0  0  0  0  0  0  0  0
    5.0490   -3.7340   -1.2710 H   0  0  0  0  0  0  0  0  0  0  0  0
    3.5540    2.3910    1.1840 H   0  0  0  0  0  0  0  0  0  0  0  0
    7.2190    1.3460   -0.4860 O   0  0  0  0  0  0  0  0  0  0  0  0
    4.9210    1.9920   -1.1390 O   0  0  0  0  0  0  0  0  0  0  0  0
    6.3990    3.4970   -0.1620 O   0  0  0  0  0  0  0  0  0  0  0  0
    1.0990    2.3120   -3.6210 H   0  0  0  0  0  0  0  0  0  0  0  0
    6.7340    3.8450   -0.9990 H   0  0  0  0  0  0  0  0  0  0  0  0
 21 22  2  0  0  0  0
 20 21  1  0  0  0  0
 22 23  1  0  0  0  0
 19 20  2  0  0  0  0
 23 34  1  0  0  0  0
 23 24  2  0  0  0  0
 19 24  1  0  0  0  0
 19 33  1  0  0  0  0
 16 18  1  0  0  0  0
 16 33  1  0  0  0  0
 15 16  1  0  0  0  0
 16 17  1  0  0  0  0
 15 32  1  0  0  0  0
  1 32  1  0  0  0  0
 12 13  1  0  0  0  0
 12 27  1  0  0  0  0
  1 25  1  0  0  0  0
  1 28  2  0  0  0  0
  2 25  1  0  0  0  0
 10 13  1  0  0  0  0
 11 27  1  0  0  0  0
  7 31  2  0  0  0  0
 10 11  1  0  0  0  0
  9 10  1  0  0  0  0
  2  7  1  0  0  0  0
  7 26  1  0  0  0  0
  2  3  1  0  0  0  0
 11 29  2  0  0  0  0
  3  4  1  0  0  0  0
  4  6  1  0  0  0  0
  4  5  1  0  0  0  0
  8 26  1  0  0  0  0
  8  9  1  0  0  0  0
  8 14  1  0  0  0  0
 14 30  1  0  0  0  0
 14 35  1  0  0  0  0
  2 36  1  0  0  0  0
  3 37  1  0  0  0  0
  3 38  1  0  0  0  0
  4 39  1  0  0  0  0
  5 40  1  0  0  0  0
  5 41  1  0  0  0  0
  6 42  1  0  0  0  0
  6 43  1  0  0  0  0
  6 44  1  0  0  0  0
  8 45  1  0  0  0  0
  9 46  1  0  0  0  0
  9 47  1  0  0  0  0
 10 48  1  0  0  0  0
 12 49  1  0  0  0  0
 12 50  1  0  0  0  0
 13 51  1  0  0  0  0
 13 52  1  0  0  0  0
 14 53  1  0  0  0  0
 15 54  1  0  0  0  0
 15 55  1  0  0  0  0
 17 56  1  0  0  0  0
 17 57  1  0  0  0  0
 17 58  1  0  0  0  0
 18 59  1  0  0  0  0
 18 60  1  0  0  0  0
 18 61  1  0  0  0  0
 20 62  1  0  0  0  0
 21 63  1  0  0  0  0
 22 64  1  0  0  0  0
 24 65  1  0  0  0  0
 25 66  1  0  0  0  0
 26 67  1  0  0  0  0
 27 68  1  0  0  0  0
 30 69  1  0  0  0  0
 35 70  2  0  0  0  0
 35 71  2  0  0  0  0
 35 72  1  0  0  0  0
  5 73  1  0  0  0  0
 72 74  1  0  0  0  0
M  END
> <OPENEYE_ISO_SMILES>
CC(C)C[C@@H](C(=O)N[C@@H](C[C@@H]1CCNC1=O)[C@H](O)S(=O)(=O)O)NC(=O)OCC(C)(C)Sc2cccc(c2)Cl

> <OPENEYE_INCHI>
InChI=1S/C24H36ClN3O8S2/c1-14(2)10-18(28-23(32)36-13-24(3,4)37-17-7-5-6-16(25)12-17)21(30)27-19(22(31)38(33,34)35)11-15-8-9-26-20(15)29/h5-7,12,14-15,18-19,22,31H,8-11,13H2,1-4H3,(H,26,29)(H,27,30)(H,28,32)(H,33,34,35)/t15-,18-,19-,22+/m0/s1

> <OPENEYE_INCHIKEY>
MOYGJNHMYWCTOO-SXTKRDDTSA-N

> <FORMULA>
C24H36ClN3O8S2

$$$$
