VM0
  -OEChem-02242320043D

 74 75  0     1  0  0  0  0  0999 V2000
    9.5330    0.5420   -1.9480 C   0  0  0  0  0  0  0  0  0  0  0  0
    9.2620    0.8050   -0.6160 C   0  0  0  0  0  0  0  0  0  0  0  0
    8.2260    0.1500    0.0220 C   0  0  0  0  0  0  0  0  0  0  0  0
   -3.6470    0.0100    0.6570 N   0  0  0  0  0  0  0  0  0  0  0  0
   -6.8770   -3.5890   -1.3790 N   0  0  0  0  0  0  0  0  0  0  0  0
   -4.7580    0.4940   -0.1670 C   0  0  1  0  0  0  0  0  0  0  0  0
   -5.5570   -1.8440   -0.5360 C   0  0  2  0  0  0  0  0  0  0  0  0
   -6.6730   -2.8340   -0.2860 C   0  0  0  0  0  0  0  0  0  0  0  0
   -5.9490   -0.4560   -0.0270 C   0  0  0  0  0  0  0  0  0  0  0  0
   -6.4190    2.5630   -0.8290 S   0  0  0  0  0  0  0  0  0  0  0  0
   -5.9480   -3.2260   -2.4570 C   0  0  0  0  0  0  0  0  0  0  0  0
   -5.3920   -1.8380   -2.0720 C   0  0  0  0  0  0  0  0  0  0  0  0
   -5.1640    1.8940    0.2960 C   0  0  2  0  0  0  0  0  0  0  0  0
    4.6950   -0.5860   -0.2650 C   0  0  0  0  0  0  0  0  0  0  0  0
    3.4690   -1.1150    0.4810 C   0  0  0  0  0  0  0  0  0  0  0  0
    7.4570   -0.7740   -0.6760 C   0  0  0  0  0  0  0  0  0  0  0  0
    7.7330   -1.0360   -2.0120 C   0  0  0  0  0  0  0  0  0  0  0  0
    8.7670   -0.3730   -2.6450 C   0  0  0  0  0  0  0  0  0  0  0  0
    4.4350   -0.6340   -1.7720 C   0  0  0  0  0  0  0  0  0  0  0  0
    4.9660    0.8590    0.1590 C   0  0  0  0  0  0  0  0  0  0  0  0
   -7.2950   -2.9330    0.7510 O   0  0  0  0  0  0  0  0  0  0  0  0
    1.1470   -0.6260    0.7420 C   0  0  0  0  0  0  0  0  0  0  0  0
   -1.2330   -0.2680    1.1190 C   0  0  1  0  0  0  0  0  0  0  0  0
   -1.3140    0.3690    2.5080 C   0  0  0  0  0  0  0  0  0  0  0  0
   -0.2300   -0.2300    3.4070 C   0  0  0  0  0  0  0  0  0  0  0  0
   -0.2290    0.4930    4.7550 C   0  0  0  0  0  0  0  0  0  0  0  0
   -0.5140   -1.7170    3.6260 C   0  0  0  0  0  0  0  0  0  0  0  0
   -2.3750    0.2310    0.2710 C   0  0  0  0  0  0  0  0  0  0  0  0
    0.0380    0.0960    0.4880 N   0  0  0  0  0  0  0  0  0  0  0  0
    1.0930   -1.5790    1.4940 O   0  0  0  0  0  0  0  0  0  0  0  0
   -4.0180    2.7480    0.2940 O   0  0  0  0  0  0  0  0  0  0  0  0
   -2.1490    0.8300   -0.7590 O   0  0  0  0  0  0  0  0  0  0  0  0
    2.3160   -0.2920    0.1620 O   0  0  0  0  0  0  0  0  0  0  0  0
    6.1360   -1.6130    0.1330 S   0  0  0  0  0  0  0  0  0  0  0  0
   10.2230    1.9600    0.2530 Cl  0  0  0  0  0  0  0  0  0  0  0  0
   10.3440    1.0550   -2.4440 H   0  0  0  0  0  0  0  0  0  0  0  0
    8.0140    0.3550    1.0610 H   0  0  0  0  0  0  0  0  0  0  0  0
   -3.8280   -0.4700    1.4800 H   0  0  0  0  0  0  0  0  0  0  0  0
   -7.5480   -4.2860   -1.4470 H   0  0  0  0  0  0  0  0  0  0  0  0
   -4.4450    0.5330   -1.2110 H   0  0  0  0  0  0  0  0  0  0  0  0
   -4.6360   -2.1790   -0.0590 H   0  0  0  0  0  0  0  0  0  0  0  0
   -6.2390   -0.5220    1.0220 H   0  0  0  0  0  0  0  0  0  0  0  0
   -6.7870   -0.0760   -0.6120 H   0  0  0  0  0  0  0  0  0  0  0  0
   -5.1380   -3.9540   -2.5170 H   0  0  0  0  0  0  0  0  0  0  0  0
   -6.4770   -3.1700   -3.4080 H   0  0  0  0  0  0  0  0  0  0  0  0
   -5.9850   -1.0410   -2.5210 H   0  0  0  0  0  0  0  0  0  0  0  0
   -4.3430   -1.7460   -2.3530 H   0  0  0  0  0  0  0  0  0  0  0  0
   -5.5730    1.8390    1.3050 H   0  0  0  0  0  0  0  0  0  0  0  0
    3.2760   -2.1440    0.1790 H   0  0  0  0  0  0  0  0  0  0  0  0
    3.6540   -1.0800    1.5550 H   0  0  0  0  0  0  0  0  0  0  0  0
    7.1380   -1.7540   -2.5570 H   0  0  0  0  0  0  0  0  0  0  0  0
    8.9810   -0.5760   -3.6840 H   0  0  0  0  0  0  0  0  0  0  0  0
    3.6180    0.0430   -2.0220 H   0  0  0  0  0  0  0  0  0  0  0  0
    5.3350   -0.3300   -2.3060 H   0  0  0  0  0  0  0  0  0  0  0  0
    4.1670   -1.6500   -2.0620 H   0  0  0  0  0  0  0  0  0  0  0  0
    5.2410    0.8820    1.2140 H   0  0  0  0  0  0  0  0  0  0  0  0
    5.7820    1.2660   -0.4380 H   0  0  0  0  0  0  0  0  0  0  0  0
    4.0680    1.4580    0.0040 H   0  0  0  0  0  0  0  0  0  0  0  0
   -1.2960   -1.3520    1.2120 H   0  0  0  0  0  0  0  0  0  0  0  0
   -1.1630    1.4450    2.4240 H   0  0  0  0  0  0  0  0  0  0  0  0
   -2.2950    0.1730    2.9410 H   0  0  0  0  0  0  0  0  0  0  0  0
    0.7430   -0.1120    2.9310 H   0  0  0  0  0  0  0  0  0  0  0  0
   -1.2020    0.3750    5.2310 H   0  0  0  0  0  0  0  0  0  0  0  0
    0.5430    0.0670    5.3960 H   0  0  0  0  0  0  0  0  0  0  0  0
   -0.0270    1.5530    4.5990 H   0  0  0  0  0  0  0  0  0  0  0  0
   -1.4870   -1.8350    4.1020 H   0  0  0  0  0  0  0  0  0  0  0  0
   -0.5140   -2.2320    2.6650 H   0  0  0  0  0  0  0  0  0  0  0  0
    0.2580   -2.1440    4.2660 H   0  0  0  0  0  0  0  0  0  0  0  0
    0.0820    0.8570   -0.1120 H   0  0  0  0  0  0  0  0  0  0  0  0
   -3.3050    2.4510    0.8750 H   0  0  0  0  0  0  0  0  0  0  0  0
   -6.0580    2.3170   -2.1820 O   0  0  0  0  0  0  0  0  0  0  0  0
   -7.6410    1.6850   -0.6010 O   0  0  0  0  0  0  0  0  0  0  0  0
   -6.8320    3.8550   -0.4050 O   0  0  0  0  0  0  0  0  0  0  0  0
   -8.4050    1.9260   -1.1420 H   0  0  0  0  0  0  0  0  0  0  0  0
  1 18  2  0  0  0  0
 17 18  1  0  0  0  0
  1  2  1  0  0  0  0
 16 17  2  0  0  0  0
  2 35  1  0  0  0  0
  2  3  2  0  0  0  0
  3 16  1  0  0  0  0
 16 34  1  0  0  0  0
 14 20  1  0  0  0  0
 14 34  1  0  0  0  0
 14 15  1  0  0  0  0
 14 19  1  0  0  0  0
 15 33  1  0  0  0  0
 22 33  1  0  0  0  0
  5 11  1  0  0  0  0
 11 12  1  0  0  0  0
 22 29  1  0  0  0  0
 22 30  2  0  0  0  0
 23 29  1  0  0  0  0
  5  8  1  0  0  0  0
 28 32  2  0  0  0  0
  7 12  1  0  0  0  0
  7  8  1  0  0  0  0
  7  9  1  0  0  0  0
 23 28  1  0  0  0  0
  4 28  1  0  0  0  0
  8 21  2  0  0  0  0
 23 24  1  0  0  0  0
 24 25  1  0  0  0  0
 25 27  1  0  0  0  0
 25 26  1  0  0  0  0
  4  6  1  0  0  0  0
  6  9  1  0  0  0  0
  6 13  1  0  0  0  0
 13 31  1  0  0  0  0
 10 13  1  0  0  0  0
  1 36  1  0  0  0  0
  3 37  1  0  0  0  0
  4 38  1  0  0  0  0
  5 39  1  0  0  0  0
  6 40  1  0  0  0  0
  7 41  1  0  0  0  0
  9 42  1  0  0  0  0
  9 43  1  0  0  0  0
 11 44  1  0  0  0  0
 11 45  1  0  0  0  0
 12 46  1  0  0  0  0
 12 47  1  0  0  0  0
 13 48  1  0  0  0  0
 15 49  1  0  0  0  0
 15 50  1  0  0  0  0
 17 51  1  0  0  0  0
 18 52  1  0  0  0  0
 19 53  1  0  0  0  0
 19 54  1  0  0  0  0
 19 55  1  0  0  0  0
 20 56  1  0  0  0  0
 20 57  1  0  0  0  0
 20 58  1  0  0  0  0
 23 59  1  0  0  0  0
 24 60  1  0  0  0  0
 24 61  1  0  0  0  0
 25 62  1  0  0  0  0
 26 63  1  0  0  0  0
 26 64  1  0  0  0  0
 26 65  1  0  0  0  0
 27 66  1  0  0  0  0
 27 67  1  0  0  0  0
 27 68  1  0  0  0  0
 29 69  1  0  0  0  0
 31 70  1  0  0  0  0
 10 71  2  0  0  0  0
 10 72  1  0  0  0  0
 10 73  2  0  0  0  0
 72 74  1  0  0  0  0
M  END
> <OPENEYE_ISO_SMILES>
CC(C)C[C@@H](C(=O)N[C@@H](C[C@@H]1CCNC1=O)[C@@H](O)S(=O)(=O)O)NC(=O)OCC(C)(C)Sc2cccc(c2)Cl

> <OPENEYE_INCHI>
InChI=1S/C24H36ClN3O8S2/c1-14(2)10-18(28-23(32)36-13-24(3,4)37-17-7-5-6-16(25)12-17)21(30)27-19(22(31)38(33,34)35)11-15-8-9-26-20(15)29/h5-7,12,14-15,18-19,22,31H,8-11,13H2,1-4H3,(H,26,29)(H,27,30)(H,28,32)(H,33,34,35)/t15-,18-,19-,22-/m0/s1

> <OPENEYE_INCHIKEY>
MOYGJNHMYWCTOO-BCSOYYNPSA-N

> <FORMULA>
C24H36ClN3O8S2

$$$$
