T0S
  -OEChem-02242320043D

 27 27  0     0  0  0  0  0  0999 V2000
    0.9340    1.1990    0.1900 C   0  0  0  0  0  0  0  0  0  0  0  0
   -5.4630   -0.0140   -1.5710 C   0  0  0  0  0  0  0  0  0  0  0  0
   -4.6790   -0.0030   -0.2830 C   0  0  0  0  0  0  0  0  0  0  0  0
   -2.5700    0.0090    0.9360 C   0  0  0  0  0  0  0  0  0  0  0  0
   -1.0950    0.0060    0.6270 C   0  0  0  0  0  0  0  0  0  0  0  0
   -0.4190   -1.1930    0.4950 C   0  0  0  0  0  0  0  0  0  0  0  0
    0.9330   -1.1950    0.2060 C   0  0  0  0  0  0  0  0  0  0  0  0
    1.6110    0.0010    0.0590 C   0  0  0  0  0  0  0  0  0  0  0  0
   -0.4190    1.2020    0.4740 C   0  0  0  0  0  0  0  0  0  0  0  0
   -3.3320   -0.0030   -0.3150 N   0  0  0  0  0  0  0  0  0  0  0  0
    4.1360    0.0070    1.1550 N   0  0  0  0  0  0  0  0  0  0  0  0
   -5.2610    0.0070    0.7810 O   0  0  0  0  0  0  0  0  0  0  0  0
    3.6200   -1.2570   -0.9010 O   0  0  0  0  0  0  0  0  0  0  0  0
    3.6210    1.2430   -0.9190 O   0  0  0  0  0  0  0  0  0  0  0  0
    3.3370   -0.0030   -0.2960 S   0  0  0  0  0  0  0  0  0  0  0  0
    1.4640    2.1330    0.0750 H   0  0  0  0  0  0  0  0  0  0  0  0
   -4.7740   -0.0220   -2.4150 H   0  0  0  0  0  0  0  0  0  0  0  0
   -6.0900   -0.9050   -1.6060 H   0  0  0  0  0  0  0  0  0  0  0  0
   -6.0910    0.8750   -1.6220 H   0  0  0  0  0  0  0  0  0  0  0  0
   -2.8200   -0.8760    1.5220 H   0  0  0  0  0  0  0  0  0  0  0  0
   -2.8200    0.9040    1.5060 H   0  0  0  0  0  0  0  0  0  0  0  0
   -0.9470   -2.1270    0.6140 H   0  0  0  0  0  0  0  0  0  0  0  0
    1.4620   -2.1320    0.1040 H   0  0  0  0  0  0  0  0  0  0  0  0
   -0.9470    2.1380    0.5760 H   0  0  0  0  0  0  0  0  0  0  0  0
   -2.8660   -0.0110   -1.1660 H   0  0  0  0  0  0  0  0  0  0  0  0
    5.1050    0.0070    1.1740 H   0  0  0  0  0  0  0  0  0  0  0  0
    3.6340    0.0140    1.9850 H   0  0  0  0  0  0  0  0  0  0  0  0
  2  3  1  0  0  0  0
  3 12  2  0  0  0  0
  3 10  1  0  0  0  0
  4 10  1  0  0  0  0
  4  5  1  0  0  0  0
  5  6  2  0  0  0  0
  6  7  1  0  0  0  0
  7  8  2  0  0  0  0
  1  9  2  0  0  0  0
  1  8  1  0  0  0  0
  8 15  1  0  0  0  0
 13 15  2  0  0  0  0
 14 15  2  0  0  0  0
 11 15  1  0  0  0  0
  5  9  1  0  0  0  0
  1 16  1  0  0  0  0
  2 17  1  0  0  0  0
  2 18  1  0  0  0  0
  2 19  1  0  0  0  0
  4 20  1  0  0  0  0
  4 21  1  0  0  0  0
  6 22  1  0  0  0  0
  7 23  1  0  0  0  0
  9 24  1  0  0  0  0
 10 25  1  0  0  0  0
 11 26  1  0  0  0  0
 11 27  1  0  0  0  0
M  END
> <OPENEYE_ISO_SMILES>
CC(=O)NCc1ccc(cc1)S(=O)(=O)N

> <OPENEYE_INCHI>
InChI=1S/C9H12N2O3S/c1-7(12)11-6-8-2-4-9(5-3-8)15(10,13)14/h2-5H,6H2,1H3,(H,11,12)(H2,10,13,14)

> <OPENEYE_INCHIKEY>
AHQONKCJXWTTOW-UHFFFAOYSA-N

> <FORMULA>
C9H12N2O3S

$$$$
