@<TRIPOS>MOLECULE
/home/pku/3cl/gett_pdb/5SPW/5SPW_mol2/ligand/5SPW_S5O.pdb
 37 40 0 0 0
SMALL
GASTEIGER

@<TRIPOS>ATOM
      1  C18      -48.1190  -28.5890    4.7650 C.2   201  S5O201      0.3381
      2  C16      -46.2160  -28.9810    6.0110 C.2   201  S5O201      0.3772
      3  C14      -44.1830  -29.4300    6.5580 C.3   201  S5O201      0.2538
      4  C12      -45.4860  -29.1920    4.8570 C.3   201  S5O201      0.2762
      5  C11      -46.1690  -29.0640    3.6310 C.2   201  S5O201      0.3290
      6  C20      -44.1100  -29.1010    2.2210 C.3   201  S5O201      0.0832
      7  C02      -43.7610  -32.3030    2.8260 C.2   201  S5O201      0.0906
      8  C03      -43.8820  -31.9010    1.3380 C.3   201  S5O201      0.0143
      9  C04      -42.8080  -30.8620    0.9760 C.3   201  S5O201     -0.0377
     10  C05      -43.3950  -29.4500    0.8970 C.3   201  S5O201     -0.0043
     11  C06      -44.4260  -29.3370   -0.2670 C.3   201  S5O201     -0.0464
     12  C07      -45.3260  -30.5770   -0.3500 C.3   201  S5O201     -0.0458
     13  C08      -45.2990  -31.4370    0.9180 C.3   201  S5O201      0.0038
     14  C09      -45.9880  -30.5900    1.9800 C.3   201  S5O201      0.0838
     15  N10      -45.5590  -29.2860    2.3350 N.pl3 201  S5O201     -0.2214
     16  N13      -44.2290  -29.4710    5.2470 N.3   201  S5O201     -0.2416
     17  N15      -45.3740  -29.1400    7.0380 N.2   201  S5O201     -0.0538
     18  N17      -47.5190  -28.6820    5.9330 N.2   201  S5O201      0.0009
     19  N19      -47.4610  -28.7830    3.6390 N.2   201  S5O201     -0.0048
     20  O01      -44.3140  -33.3670    3.2010 O.co2 201  S5O201     -0.8474
     21  O21      -43.0960  -31.6230    3.6510 O.co2 201  S5O201     -0.3087
     22 H181      -49.1670  -28.3470    4.7190 H     201  S5O201      0.1668
     23 H141      -43.2970  -29.6170    7.1390 H     201  S5O201      0.1067
     24 H202      -43.9100  -28.0640    2.4260 H     201  S5O201      0.0728
     25 H201      -43.6040  -29.6560    2.9870 H     201  S5O201      0.0728
     26 H031      -43.6670  -32.8110    0.8140 H     201  S5O201      0.0372
     27 H041      -42.0020  -30.8830    1.6980 H     201  S5O201      0.0276
     28 H042      -42.4050  -31.1180    0.0030 H     201  S5O201      0.0276
     29 H051      -42.5940  -28.7480    0.7340 H     201  S5O201      0.0337
     30 H062      -45.0400  -28.4550   -0.1190 H     201  S5O201      0.0269
     31 H061      -43.8810  -29.2390   -1.1980 H     201  S5O201      0.0269
     32 H072      -44.9990  -31.1800   -1.1880 H     201  S5O201      0.0269
     33 H071      -46.3450  -30.2520   -0.5440 H     201  S5O201      0.0269
     34 H081      -45.9070  -32.3170    0.7440 H     201  S5O201      0.0344
     35 H091      -46.0450  -31.1630    2.8970 H     201  S5O201      0.0729
     36 H092      -47.0100  -30.4730    1.6440 H     201  S5O201      0.0729
     37 H131      -43.4420  -29.6680    4.6600 H     201  S5O201      0.1278
@<TRIPOS>UNITY_ATOM_ATTR
20 1
charge -1
@<TRIPOS>BOND
     1    31    11    1
     2    32    12    1
     3    33    12    1
     4    12    11    1
     5    12    13    1
     6    11    30    1
     7    11    10    1
     8    28     9    1
     9    29    10    1
    10    34    13    1
    11    26     8    1
    12    10     9    1
    13    10     6    1
    14    13     8    1
    15    13    14    1
    16     9     8    1
    17     9    27    1
    18     8     7    1
    19    36    14    1
    20    14    15    1
    21    14    35    1
    22     6    15    1
    23     6    24    1
    24     6    25    1
    25    15     5    1
    26     7    20   ar
    27     7    21   ar
    28     5    19    2
    29     5     4    1
    30    19     1    1
    31    37    16    1
    32    22     1    1
    33     1    18    2
    34     4    16    1
    35     4     2    1
    36    16     3    1
    37    18     2    1
    38     2    17    2
    39     3    17    1
    40     3    23    1
