Y4D
  -OEChem-02242320043D

 77 79  0     1  0  0  0  0  0999 V2000
    2.8370   -0.1150    0.4730 N   0  0  0  0  0  0  0  0  0  0  0  0
    1.5420    0.0500    0.8060 C   0  0  0  0  0  0  0  0  0  0  0  0
    0.6610    0.7410   -1.4060 C   0  0  0  0  0  0  0  0  0  0  0  0
   -0.3570    0.4030   -2.4980 C   0  0  0  0  0  0  0  0  0  0  0  0
   -0.2420    1.4210   -3.6340 C   0  0  0  0  0  0  0  0  0  0  0  0
   -3.1490   -0.3350    0.4470 O   0  0  0  0  0  0  0  0  0  0  0  0
   -6.7320   -1.4650    0.0790 C   0  0  0  0  0  0  0  0  0  0  0  0
   -8.0250   -1.0660    0.7880 C   0  0  1  0  0  0  0  0  0  0  0  0
   -7.7340    0.0140    1.8310 C   0  0  0  0  0  0  0  0  0  0  0  0
   -7.1330    1.2370    1.1360 C   0  0  1  0  0  0  0  0  0  0  0  0
   -5.8350    0.8470    0.4290 C   0  0  0  0  0  0  0  0  0  0  0  0
   -8.1330    1.7850    0.1170 C   0  0  0  0  0  0  0  0  0  0  0  0
   -8.4590    0.7120   -0.9220 C   0  0  0  0  0  0  0  0  0  0  0  0
    3.8100   -2.5750    0.1460 C   0  0  0  0  0  0  0  0  0  0  0  0
    5.8760   -3.2850   -0.6430 C   0  0  0  0  0  0  0  0  0  0  0  0
    6.0720   -3.0150    0.8650 C   0  0  0  0  0  0  0  0  0  0  0  0
    4.8180   -2.1750    1.2010 C   0  0  1  0  0  0  0  0  0  0  0  0
    5.1320   -0.6810    1.1010 C   0  0  0  0  0  0  0  0  0  0  0  0
    3.8860    0.1280    1.4670 C   0  0  1  0  0  0  0  0  0  0  0  0
    4.2330    1.6180    1.4880 C   0  0  2  0  0  0  0  0  0  0  0  0
    0.4630   -0.2000   -0.2160 C   0  0  2  0  0  0  0  0  0  0  0  0
   -0.0770   -1.0000   -3.0400 C   0  0  0  0  0  0  0  0  0  0  0  0
   -1.9440   -0.5620   -0.1090 C   0  0  0  0  0  0  0  0  0  0  0  0
   -4.2850   -1.0240   -0.1400 C   0  0  0  0  0  0  0  0  0  0  0  0
   -5.5610   -0.6450    0.6190 C   0  0  0  0  0  0  0  0  0  0  0  0
   -9.0290   -0.5270   -0.2340 C   0  0  0  0  0  0  0  0  0  0  0  0
    4.4290   -3.2000   -0.8710 N   0  0  0  0  0  0  0  0  0  0  0  0
   -0.8490    0.0460    0.3880 N   0  0  0  0  0  0  0  0  0  0  0  0
    2.6170   -2.3680    0.2120 O   0  0  0  0  0  0  0  0  0  0  0  0
    3.1020    2.3640    1.9420 O   0  0  0  0  0  0  0  0  0  0  0  0
   -1.8440   -1.3140   -1.0580 O   0  0  0  0  0  0  0  0  0  0  0  0
    1.2440    0.3990    1.9290 O   0  0  0  0  0  0  0  0  0  0  0  0
    3.0750   -0.3980   -0.4240 H   0  0  0  0  0  0  0  0  0  0  0  0
    1.6700    0.6200   -1.8010 H   0  0  0  0  0  0  0  0  0  0  0  0
    0.5180    1.7720   -1.0830 H   0  0  0  0  0  0  0  0  0  0  0  0
   -1.3630    0.4380   -2.0790 H   0  0  0  0  0  0  0  0  0  0  0  0
    0.7630    1.3870   -4.0530 H   0  0  0  0  0  0  0  0  0  0  0  0
   -0.9680    1.1810   -4.4120 H   0  0  0  0  0  0  0  0  0  0  0  0
   -0.4420    2.4210   -3.2480 H   0  0  0  0  0  0  0  0  0  0  0  0
   -6.5380   -2.5260    0.2540 H   0  0  0  0  0  0  0  0  0  0  0  0
   -6.8320   -1.2970   -0.9930 H   0  0  0  0  0  0  0  0  0  0  0  0
   -8.4510   -1.9400    1.2840 H   0  0  0  0  0  0  0  0  0  0  0  0
   -8.6670    0.3010    2.3220 H   0  0  0  0  0  0  0  0  0  0  0  0
   -7.0410   -0.3680    2.5770 H   0  0  0  0  0  0  0  0  0  0  0  0
   -6.9210    2.0070    1.8820 H   0  0  0  0  0  0  0  0  0  0  0  0
   -5.9140    1.0720   -0.6340 H   0  0  0  0  0  0  0  0  0  0  0  0
   -5.0080    1.4220    0.8520 H   0  0  0  0  0  0  0  0  0  0  0  0
   -9.0480    2.0830    0.6310 H   0  0  0  0  0  0  0  0  0  0  0  0
   -7.7020    2.6540   -0.3820 H   0  0  0  0  0  0  0  0  0  0  0  0
   -9.1990    1.1050   -1.6240 H   0  0  0  0  0  0  0  0  0  0  0  0
   -7.5580    0.4470   -1.4740 H   0  0  0  0  0  0  0  0  0  0  0  0
    6.3960   -2.5300   -1.2320 H   0  0  0  0  0  0  0  0  0  0  0  0
    6.2410   -4.2800   -0.8980 H   0  0  0  0  0  0  0  0  0  0  0  0
    6.0800   -3.9470    1.4310 H   0  0  0  0  0  0  0  0  0  0  0  0
    6.9840   -2.4450    1.0440 H   0  0  0  0  0  0  0  0  0  0  0  0
    4.4470   -2.4200    2.1960 H   0  0  0  0  0  0  0  0  0  0  0  0
    5.9410   -0.4330    1.7880 H   0  0  0  0  0  0  0  0  0  0  0  0
    5.4350   -0.4400    0.0820 H   0  0  0  0  0  0  0  0  0  0  0  0
    3.5310   -0.1770    2.4510 H   0  0  0  0  0  0  0  0  0  0  0  0
    4.6820    2.1590   -0.1840 S   0  0  0  0  0  0  0  0  0  0  0  0
    5.0730    1.7860    2.1620 H   0  0  0  0  0  0  0  0  0  0  0  0
    0.5180   -1.2340   -0.5570 H   0  0  0  0  0  0  0  0  0  0  0  0
    0.9290   -1.0340   -3.4580 H   0  0  0  0  0  0  0  0  0  0  0  0
   -0.1590   -1.7250   -2.2300 H   0  0  0  0  0  0  0  0  0  0  0  0
   -0.8030   -1.2400   -3.8170 H   0  0  0  0  0  0  0  0  0  0  0  0
   -4.3850   -0.7330   -1.1860 H   0  0  0  0  0  0  0  0  0  0  0  0
   -4.1300   -2.1010   -0.0760 H   0  0  0  0  0  0  0  0  0  0  0  0
   -5.4200   -0.8600    1.6790 H   0  0  0  0  0  0  0  0  0  0  0  0
   -9.2330   -1.2960   -0.9800 H   0  0  0  0  0  0  0  0  0  0  0  0
   -9.9580   -0.2660    0.2750 H   0  0  0  0  0  0  0  0  0  0  0  0
    3.9770   -3.5490   -1.6550 H   0  0  0  0  0  0  0  0  0  0  0  0
   -0.9280    0.6470    1.1460 H   0  0  0  0  0  0  0  0  0  0  0  0
    2.3160    2.2620    1.3890 H   0  0  0  0  0  0  0  0  0  0  0  0
    5.9140    1.5730   -0.5830 O   0  0  0  0  0  0  0  0  0  0  0  0
    3.5470    2.1310   -1.0390 O   0  0  0  0  0  0  0  0  0  0  0  0
    5.0020    3.6390   -0.0320 O   0  0  0  0  0  0  0  0  0  0  0  0
    5.2620    4.0720   -0.8560 H   0  0  0  0  0  0  0  0  0  0  0  0
 14 29  2  0  0  0  0
 14 27  1  0  0  0  0
 14 17  1  0  0  0  0
 15 27  1  0  0  0  0
  6 24  1  0  0  0  0
 24 25  1  0  0  0  0
 23 31  2  0  0  0  0
  7 25  1  0  0  0  0
  7  8  1  0  0  0  0
  6 23  1  0  0  0  0
 23 28  1  0  0  0  0
 17 18  1  0  0  0  0
 16 17  1  0  0  0  0
 15 16  1  0  0  0  0
 11 25  1  0  0  0  0
  8 26  1  0  0  0  0
  8  9  1  0  0  0  0
 13 26  1  0  0  0  0
  4  5  1  0  0  0  0
 21 28  1  0  0  0  0
 18 19  1  0  0  0  0
  2 21  1  0  0  0  0
  3 21  1  0  0  0  0
 12 13  1  0  0  0  0
  1  2  1  0  0  0  0
  1 19  1  0  0  0  0
 10 11  1  0  0  0  0
  2 32  2  0  0  0  0
  3  4  1  0  0  0  0
  4 22  1  0  0  0  0
  9 10  1  0  0  0  0
 19 20  1  0  0  0  0
 10 12  1  0  0  0  0
 20 30  1  0  0  0  0
  1 33  1  0  0  0  0
  3 34  1  0  0  0  0
  3 35  1  0  0  0  0
  4 36  1  0  0  0  0
  5 37  1  0  0  0  0
  5 38  1  0  0  0  0
  5 39  1  0  0  0  0
  7 40  1  0  0  0  0
  7 41  1  0  0  0  0
  8 42  1  0  0  0  0
  9 43  1  0  0  0  0
  9 44  1  0  0  0  0
 10 45  1  0  0  0  0
 11 46  1  0  0  0  0
 11 47  1  0  0  0  0
 12 48  1  0  0  0  0
 12 49  1  0  0  0  0
 13 50  1  0  0  0  0
 13 51  1  0  0  0  0
 15 52  1  0  0  0  0
 15 53  1  0  0  0  0
 16 54  1  0  0  0  0
 16 55  1  0  0  0  0
 17 56  1  0  0  0  0
 18 57  1  0  0  0  0
 18 58  1  0  0  0  0
 19 59  1  0  0  0  0
 20 60  1  0  0  0  0
 20 61  1  0  0  0  0
 21 62  1  0  0  0  0
 22 63  1  0  0  0  0
 22 64  1  0  0  0  0
 22 65  1  0  0  0  0
 24 66  1  0  0  0  0
 24 67  1  0  0  0  0
 25 68  1  0  0  0  0
 26 69  1  0  0  0  0
 26 70  1  0  0  0  0
 27 71  1  0  0  0  0
 28 72  1  0  0  0  0
 30 73  1  0  0  0  0
 60 74  2  0  0  0  0
 60 75  2  0  0  0  0
 60 76  1  0  0  0  0
 76 77  1  0  0  0  0
M  END
> <OPENEYE_ISO_SMILES>
CC(C)C[C@@H](C(=O)N[C@@H](C[C@@H]1CCNC1=O)[C@H](O)S(=O)(=O)O)NC(=O)OCC2C[C@@H]3CCC[C@@H](C3)C2

> <OPENEYE_INCHI>
InChI=1S/C24H41N3O8S/c1-14(2)8-19(27-24(31)35-13-17-10-15-4-3-5-16(9-15)11-17)22(29)26-20(23(30)36(32,33)34)12-18-6-7-25-21(18)28/h14-20,23,30H,3-13H2,1-2H3,(H,25,28)(H,26,29)(H,27,31)(H,32,33,34)/t15-,16+,17-,18-,19-,20-,23+/m0/s1

> <OPENEYE_INCHIKEY>
PGYROSRJIVXTOE-ZDCSSWJMSA-N

> <FORMULA>
C24H41N3O8S

$$$$
