Y5S
  -OEChem-02242320043D

 77 79  0     1  0  0  0  0  0999 V2000
   -1.1650    3.4820    3.3670 C   0  0  0  0  0  0  0  0  0  0  0  0
    0.0790    0.7140    1.0030 C   0  0  1  0  0  0  0  0  0  0  0  0
    0.0920    2.0460    1.7550 C   0  0  0  0  0  0  0  0  0  0  0  0
   -1.0890    2.0950    2.7260 C   0  0  0  0  0  0  0  0  0  0  0  0
    4.6610   -0.7340    0.6360 C   0  0  0  0  0  0  0  0  0  0  0  0
    6.9640   -1.6170    0.2790 C   0  0  0  0  0  0  0  0  0  0  0  0
    8.2340   -1.4940   -0.5570 C   0  0  1  0  0  0  0  0  0  0  0  0
    7.3530    0.3940   -1.8970 C   0  0  1  0  0  0  0  0  0  0  0  0
   -1.1220    0.6610    0.0950 C   0  0  0  0  0  0  0  0  0  0  0  0
   -0.8980    1.0390    3.8160 C   0  0  0  0  0  0  0  0  0  0  0  0
   -4.1690    1.5460   -0.4980 C   0  0  1  0  0  0  0  0  0  0  0  0
   -3.4810    0.1940   -0.2990 C   0  0  2  0  0  0  0  0  0  0  0  0
   -3.7940   -2.1580    0.4830 C   0  0  2  0  0  0  0  0  0  0  0  0
   -4.7580   -3.1600    1.0800 C   0  0  0  0  0  0  0  0  0  0  0  0
   -3.6930   -4.2610   -0.6660 C   0  0  0  0  0  0  0  0  0  0  0  0
   -4.4720   -0.7970    0.3150 C   0  0  0  0  0  0  0  0  0  0  0  0
   -3.4320   -2.7560   -0.8970 C   0  0  0  0  0  0  0  0  0  0  0  0
    2.4110    0.0540    0.7460 C   0  0  0  0  0  0  0  0  0  0  0  0
    5.7970   -0.8910   -0.3850 C   0  0  0  0  0  0  0  0  0  0  0  0
    7.8730   -1.0440   -1.9720 C   0  0  0  0  0  0  0  0  0  0  0  0
    6.1820    0.4800   -0.9210 C   0  0  0  0  0  0  0  0  0  0  0  0
    8.4850    1.2950   -1.3870 C   0  0  0  0  0  0  0  0  0  0  0  0
    8.8370    0.8870    0.0440 C   0  0  0  0  0  0  0  0  0  0  0  0
    9.2590   -0.5780    0.0880 C   0  0  0  0  0  0  0  0  0  0  0  0
   -4.6840   -4.3250    0.4150 N   0  0  0  0  0  0  0  0  0  0  0  0
   -2.3350    0.3570    0.5990 N   0  0  0  0  0  0  0  0  0  0  0  0
    1.3010    0.5930    0.2030 N   0  0  0  0  0  0  0  0  0  0  0  0
   -5.4900   -2.9420    2.0220 O   0  0  0  0  0  0  0  0  0  0  0  0
   -3.2140    2.5040   -0.9580 O   0  0  0  0  0  0  0  0  0  0  0  0
    3.5020   -0.1510   -0.0160 O   0  0  0  0  0  0  0  0  0  0  0  0
    2.4270   -0.2450    1.9240 O   0  0  0  0  0  0  0  0  0  0  0  0
   -0.9980    0.8920   -1.0890 O   0  0  0  0  0  0  0  0  0  0  0  0
   -1.3010    4.2350    2.5900 H   0  0  0  0  0  0  0  0  0  0  0  0
   -2.0070    3.5170    4.0590 H   0  0  0  0  0  0  0  0  0  0  0  0
   -0.2410    3.6830    3.9090 H   0  0  0  0  0  0  0  0  0  0  0  0
    0.0310   -0.1070    1.7180 H   0  0  0  0  0  0  0  0  0  0  0  0
    1.0240    2.1400    2.3120 H   0  0  0  0  0  0  0  0  0  0  0  0
    0.0110    2.8670    1.0420 H   0  0  0  0  0  0  0  0  0  0  0  0
   -2.0130    1.8950    2.1840 H   0  0  0  0  0  0  0  0  0  0  0  0
    4.3980   -1.7110    1.0390 H   0  0  0  0  0  0  0  0  0  0  0  0
    4.9880   -0.0820    1.4460 H   0  0  0  0  0  0  0  0  0  0  0  0
    6.7100   -2.6740    0.3990 H   0  0  0  0  0  0  0  0  0  0  0  0
    7.1390   -1.1890    1.2700 H   0  0  0  0  0  0  0  0  0  0  0  0
    8.6800   -2.5030   -0.6350 H   0  0  0  0  0  0  0  0  0  0  0  0
    7.0410    0.7250   -2.8840 H   0  0  0  0  0  0  0  0  0  0  0  0
   -0.0070    1.2750    4.3980 H   0  0  0  0  0  0  0  0  0  0  0  0
   -1.7690    1.0310    4.4710 H   0  0  0  0  0  0  0  0  0  0  0  0
   -0.7810    0.0580    3.3550 H   0  0  0  0  0  0  0  0  0  0  0  0
   -4.5930    1.8820    0.4490 H   0  0  0  0  0  0  0  0  0  0  0  0
   -5.4940    1.3750   -1.7260 S   0  0  0  0  0  0  0  0  0  0  0  0
   -3.1380   -0.1840   -1.2610 H   0  0  0  0  0  0  0  0  0  0  0  0
   -2.9030   -2.0660    1.1040 H   0  0  0  0  0  0  0  0  0  0  0  0
   -4.0930   -4.7180   -1.5710 H   0  0  0  0  0  0  0  0  0  0  0  0
   -2.7730   -4.7620   -0.3650 H   0  0  0  0  0  0  0  0  0  0  0  0
   -4.7970   -0.4300    1.2890 H   0  0  0  0  0  0  0  0  0  0  0  0
   -5.3360   -0.9000   -0.3410 H   0  0  0  0  0  0  0  0  0  0  0  0
   -4.0850   -2.3620   -1.6760 H   0  0  0  0  0  0  0  0  0  0  0  0
   -2.3850   -2.5740   -1.1380 H   0  0  0  0  0  0  0  0  0  0  0  0
    5.4240   -1.5070   -1.2130 H   0  0  0  0  0  0  0  0  0  0  0  0
    8.7600   -1.0770   -2.6030 H   0  0  0  0  0  0  0  0  0  0  0  0
    7.1040   -1.6930   -2.3850 H   0  0  0  0  0  0  0  0  0  0  0  0
    6.4290    1.1500   -0.0980 H   0  0  0  0  0  0  0  0  0  0  0  0
    5.3200    0.9090   -1.4500 H   0  0  0  0  0  0  0  0  0  0  0  0
    9.3580    1.1760   -2.0270 H   0  0  0  0  0  0  0  0  0  0  0  0
    8.1560    2.3320   -1.4030 H   0  0  0  0  0  0  0  0  0  0  0  0
    9.6670    1.5090    0.3940 H   0  0  0  0  0  0  0  0  0  0  0  0
    7.9860    1.0490    0.7020 H   0  0  0  0  0  0  0  0  0  0  0  0
    9.4080   -0.8750    1.1320 H   0  0  0  0  0  0  0  0  0  0  0  0
   10.2200   -0.6860   -0.4300 H   0  0  0  0  0  0  0  0  0  0  0  0
   -5.2180   -5.1090    0.6230 H   0  0  0  0  0  0  0  0  0  0  0  0
   -2.4480    0.2470    1.5560 H   0  0  0  0  0  0  0  0  0  0  0  0
    1.3110    0.9000   -0.7170 H   0  0  0  0  0  0  0  0  0  0  0  0
   -2.4760    2.6460   -0.3500 H   0  0  0  0  0  0  0  0  0  0  0  0
   -6.1820    2.6070   -1.8910 O   0  0  0  0  0  0  0  0  0  0  0  0
   -5.0390    0.6330   -2.8490 O   0  0  0  0  0  0  0  0  0  0  0  0
   -6.5130    0.4620   -1.0600 O   0  0  0  0  0  0  0  0  0  0  0  0
   -7.2900    0.2770   -1.6050 H   0  0  0  0  0  0  0  0  0  0  0  0
 14 28  2  0  0  0  0
 14 25  1  0  0  0  0
 13 14  1  0  0  0  0
 15 25  1  0  0  0  0
  5 30  1  0  0  0  0
  5 19  1  0  0  0  0
 18 31  2  0  0  0  0
  6 19  1  0  0  0  0
  6  7  1  0  0  0  0
 13 16  1  0  0  0  0
 13 17  1  0  0  0  0
 18 30  1  0  0  0  0
 18 27  1  0  0  0  0
 15 17  1  0  0  0  0
 19 21  1  0  0  0  0
  7 24  1  0  0  0  0
  7 20  1  0  0  0  0
  4 10  1  0  0  0  0
 23 24  1  0  0  0  0
 12 16  1  0  0  0  0
  2 27  1  0  0  0  0
 12 26  1  0  0  0  0
  9 26  1  0  0  0  0
  2  9  1  0  0  0  0
  2  3  1  0  0  0  0
 22 23  1  0  0  0  0
  8 21  1  0  0  0  0
  3  4  1  0  0  0  0
  1  4  1  0  0  0  0
 11 12  1  0  0  0  0
  8 20  1  0  0  0  0
  9 32  2  0  0  0  0
 11 29  1  0  0  0  0
  8 22  1  0  0  0  0
  1 33  1  0  0  0  0
  1 34  1  0  0  0  0
  1 35  1  0  0  0  0
  2 36  1  0  0  0  0
  3 37  1  0  0  0  0
  3 38  1  0  0  0  0
  4 39  1  0  0  0  0
  5 40  1  0  0  0  0
  5 41  1  0  0  0  0
  6 42  1  0  0  0  0
  6 43  1  0  0  0  0
  7 44  1  0  0  0  0
  8 45  1  0  0  0  0
 10 46  1  0  0  0  0
 10 47  1  0  0  0  0
 10 48  1  0  0  0  0
 11 49  1  0  0  0  0
 11 50  1  0  0  0  0
 12 51  1  0  0  0  0
 13 52  1  0  0  0  0
 15 53  1  0  0  0  0
 15 54  1  0  0  0  0
 16 55  1  0  0  0  0
 16 56  1  0  0  0  0
 17 57  1  0  0  0  0
 17 58  1  0  0  0  0
 19 59  1  0  0  0  0
 20 60  1  0  0  0  0
 20 61  1  0  0  0  0
 21 62  1  0  0  0  0
 21 63  1  0  0  0  0
 22 64  1  0  0  0  0
 22 65  1  0  0  0  0
 23 66  1  0  0  0  0
 23 67  1  0  0  0  0
 24 68  1  0  0  0  0
 24 69  1  0  0  0  0
 25 70  1  0  0  0  0
 26 71  1  0  0  0  0
 27 72  1  0  0  0  0
 29 73  1  0  0  0  0
 50 74  2  0  0  0  0
 50 75  2  0  0  0  0
 50 76  1  0  0  0  0
 76 77  1  0  0  0  0
M  END
> <OPENEYE_ISO_SMILES>
CC(C)C[C@@H](C(=O)N[C@@H](C[C@@H]1CCNC1=O)[C@@H](O)S(=O)(=O)O)NC(=O)OCC2C[C@@H]3CCC[C@@H](C3)C2

> <OPENEYE_INCHI>
InChI=1S/C24H41N3O8S/c1-14(2)8-19(27-24(31)35-13-17-10-15-4-3-5-16(9-15)11-17)22(29)26-20(23(30)36(32,33)34)12-18-6-7-25-21(18)28/h14-20,23,30H,3-13H2,1-2H3,(H,25,28)(H,26,29)(H,27,31)(H,32,33,34)/t15-,16+,17-,18-,19-,20-,23-/m0/s1

> <OPENEYE_INCHIKEY>
PGYROSRJIVXTOE-LZHMTVEHSA-N

> <FORMULA>
C24H41N3O8S

$$$$
