KCX
  -OEChem-02242320033D

 27 26  0     1  0  0  0  0  0999 V2000
    2.9000    1.7780   -0.2310 N   0  0  0  0  0  0  0  0  0  0  0  0
    2.8690    0.4420    0.3810 C   0  0  1  0  0  0  0  0  0  0  0  0
    1.6640   -0.3350   -0.1540 C   0  0  0  0  0  0  0  0  0  0  0  0
    0.3730    0.3490    0.3010 C   0  0  0  0  0  0  0  0  0  0  0  0
   -0.8310   -0.4280   -0.2330 C   0  0  0  0  0  0  0  0  0  0  0  0
   -2.1220    0.2560    0.2210 C   0  0  0  0  0  0  0  0  0  0  0  0
   -3.2760   -0.4890   -0.2900 N   0  0  0  0  0  0  0  0  0  0  0  0
    4.1360   -0.2980    0.0380 C   0  0  0  0  0  0  0  0  0  0  0  0
    4.8030    0.0520   -0.9070 O   0  0  0  0  0  0  0  0  0  0  0  0
   -4.5260   -0.0680   -0.0140 C   0  0  0  0  0  0  0  0  0  0  0  0
    4.5240   -1.3450    0.7820 O   0  0  0  0  0  0  0  0  0  0  0  0
   -4.6960    0.9290    0.6600 O   0  0  0  0  0  0  0  0  0  0  0  0
   -5.5860   -0.7520   -0.4840 O   0  0  0  0  0  0  0  0  0  0  0  0
    2.9760    1.7140   -1.2350 H   0  0  0  0  0  0  0  0  0  0  0  0
    2.0910    2.3170    0.0370 H   0  0  0  0  0  0  0  0  0  0  0  0
    2.7870    0.5400    1.4630 H   0  0  0  0  0  0  0  0  0  0  0  0
    1.7000   -0.3570   -1.2430 H   0  0  0  0  0  0  0  0  0  0  0  0
    1.6900   -1.3550    0.2310 H   0  0  0  0  0  0  0  0  0  0  0  0
    0.3380    0.3700    1.3900 H   0  0  0  0  0  0  0  0  0  0  0  0
    0.3470    1.3680   -0.0830 H   0  0  0  0  0  0  0  0  0  0  0  0
   -0.7960   -0.4500   -1.3220 H   0  0  0  0  0  0  0  0  0  0  0  0
   -0.8060   -1.4480    0.1510 H   0  0  0  0  0  0  0  0  0  0  0  0
   -2.1580    0.2770    1.3110 H   0  0  0  0  0  0  0  0  0  0  0  0
   -2.1480    1.2750   -0.1630 H   0  0  0  0  0  0  0  0  0  0  0  0
   -3.1400   -1.2840   -0.8280 H   0  0  0  0  0  0  0  0  0  0  0  0
    5.3440   -1.7880    0.5240 H   0  0  0  0  0  0  0  0  0  0  0  0
   -6.4630   -0.4120   -0.2590 H   0  0  0  0  0  0  0  0  0  0  0  0
  1  2  1  0  0  0  0
  1 14  1  0  0  0  0
  1 15  1  0  0  0  0
  2  3  1  0  0  0  0
  2  8  1  0  0  0  0
  2 16  1  0  0  0  0
  3  4  1  0  0  0  0
  3 17  1  0  0  0  0
  3 18  1  0  0  0  0
  4  5  1  0  0  0  0
  4 19  1  0  0  0  0
  4 20  1  0  0  0  0
  5  6  1  0  0  0  0
  5 21  1  0  0  0  0
  5 22  1  0  0  0  0
  6  7  1  0  0  0  0
  6 23  1  0  0  0  0
  6 24  1  0  0  0  0
  7 10  1  0  0  0  0
  7 25  1  0  0  0  0
  8  9  2  0  0  0  0
  8 11  1  0  0  0  0
 10 12  2  0  0  0  0
 10 13  1  0  0  0  0
 11 26  1  0  0  0  0
 13 27  1  0  0  0  0
M  END
> <OPENEYE_ISO_SMILES>
C(CCNC(=O)O)C[C@@H](C(=O)O)N

> <OPENEYE_INCHI>
InChI=1S/C7H14N2O4/c8-5(6(10)11)3-1-2-4-9-7(12)13/h5,9H,1-4,8H2,(H,10,11)(H,12,13)/t5-/m0/s1

> <OPENEYE_INCHIKEY>
PWIKLEYMFKCERQ-YFKPBYRVSA-N

> <FORMULA>
C7H14N2O4

$$$$
