UWY
  -OEChem-02242320043D

 32 33  0     0  0  0  0  0  0999 V2000
    0.2280   -0.5920   -0.5980 N   0  0  0  0  0  0  0  0  0  0  0  0
    1.2550    0.2570   -0.4000 C   0  0  0  0  0  0  0  0  0  0  0  0
    2.6690   -0.1990   -0.6500 C   0  0  0  0  0  0  0  0  0  0  0  0
    3.0310   -1.3500    0.3110 C   0  0  0  0  0  0  0  0  0  0  0  0
    4.5150   -1.0920    0.6710 C   0  0  0  0  0  0  0  0  0  0  0  0
    4.5780    0.4510    0.7770 C   0  0  0  0  0  0  0  0  0  0  0  0
   -1.4850    1.1080    0.0730 C   0  0  0  0  0  0  0  0  0  0  0  0
   -3.2770   -0.1350   -0.1960 N   0  0  0  0  0  0  0  0  0  0  0  0
   -5.3160   -0.2870    1.1470 C   0  0  0  0  0  0  0  0  0  0  0  0
    1.0410    1.3900   -0.0210 O   0  0  0  0  0  0  0  0  0  0  0  0
   -4.6850   -0.5390   -0.2240 C   0  0  0  0  0  0  0  0  0  0  0  0
   -2.2150   -0.9140   -0.5230 C   0  0  0  0  0  0  0  0  0  0  0  0
   -1.0930   -0.1660   -0.3640 C   0  0  0  0  0  0  0  0  0  0  0  0
    3.6530    0.9460   -0.3540 C   0  0  0  0  0  0  0  0  0  0  0  0
   -2.7890    1.1250    0.1730 N   0  0  0  0  0  0  0  0  0  0  0  0
    0.3980   -1.4960   -0.9050 H   0  0  0  0  0  0  0  0  0  0  0  0
    2.7780   -0.5270   -1.6840 H   0  0  0  0  0  0  0  0  0  0  0  0
    2.4090   -1.3100    1.2050 H   0  0  0  0  0  0  0  0  0  0  0  0
    2.9190   -2.3130   -0.1880 H   0  0  0  0  0  0  0  0  0  0  0  0
    4.7680   -1.5560    1.6250 H   0  0  0  0  0  0  0  0  0  0  0  0
    5.1730   -1.4520   -0.1210 H   0  0  0  0  0  0  0  0  0  0  0  0
    4.2060    0.7830    1.7460 H   0  0  0  0  0  0  0  0  0  0  0  0
    5.5970    0.8040    0.6180 H   0  0  0  0  0  0  0  0  0  0  0  0
   -0.8230    1.9320    0.2940 H   0  0  0  0  0  0  0  0  0  0  0  0
   -6.3630   -0.5880    1.1260 H   0  0  0  0  0  0  0  0  0  0  0  0
   -4.7860   -0.8670    1.9030 H   0  0  0  0  0  0  0  0  0  0  0  0
   -5.2480    0.7740    1.3890 H   0  0  0  0  0  0  0  0  0  0  0  0
   -5.2150    0.0400   -0.9800 H   0  0  0  0  0  0  0  0  0  0  0  0
   -4.7530   -1.6000   -0.4660 H   0  0  0  0  0  0  0  0  0  0  0  0
   -2.2550   -1.9430   -0.8500 H   0  0  0  0  0  0  0  0  0  0  0  0
    4.2400    1.1740   -1.2440 H   0  0  0  0  0  0  0  0  0  0  0  0
    3.1080    1.8320   -0.0290 H   0  0  0  0  0  0  0  0  0  0  0  0
  7 15  2  0  0  0  0
  7 13  1  0  0  0  0
  8 15  1  0  0  0  0
  1 13  1  0  0  0  0
  1  2  1  0  0  0  0
 12 13  2  0  0  0  0
  2  3  1  0  0  0  0
  3 14  1  0  0  0  0
  3  4  1  0  0  0  0
  8 12  1  0  0  0  0
  8 11  1  0  0  0  0
  5  6  1  0  0  0  0
  4  5  1  0  0  0  0
  6 14  1  0  0  0  0
  2 10  2  0  0  0  0
  9 11  1  0  0  0  0
  1 16  1  0  0  0  0
  3 17  1  0  0  0  0
  4 18  1  0  0  0  0
  4 19  1  0  0  0  0
  5 20  1  0  0  0  0
  5 21  1  0  0  0  0
  6 22  1  0  0  0  0
  6 23  1  0  0  0  0
  7 24  1  0  0  0  0
  9 25  1  0  0  0  0
  9 26  1  0  0  0  0
  9 27  1  0  0  0  0
 11 28  1  0  0  0  0
 11 29  1  0  0  0  0
 12 30  1  0  0  0  0
 14 31  1  0  0  0  0
 14 32  1  0  0  0  0
M  END
> <OPENEYE_ISO_SMILES>
CCn1cc(cn1)NC(=O)C2CCCC2

> <OPENEYE_INCHI>
InChI=1S/C11H17N3O/c1-2-14-8-10(7-12-14)13-11(15)9-5-3-4-6-9/h7-9H,2-6H2,1H3,(H,13,15)

> <OPENEYE_INCHIKEY>
GXDSBWMCMQHCOL-UHFFFAOYSA-N

> <FORMULA>
C11H17N3O

$$$$
