RI3
  -OEChem-02242320043D

 42 46  0     1  0  0  0  0  0999 V2000
   -0.7110    3.5800    0.7600 C   0  0  0  0  0  0  0  0  0  0  0  0
   -2.5070    2.1830    0.4040 C   0  0  0  0  0  0  0  0  0  0  0  0
   -2.1250   -1.4020   -0.3520 C   0  0  0  0  0  0  0  0  0  0  0  0
   -3.1420   -2.3050   -0.5740 C   0  0  0  0  0  0  0  0  0  0  0  0
   -4.4670   -1.8930   -0.5170 C   0  0  0  0  0  0  0  0  0  0  0  0
   -4.7800   -0.5780   -0.2380 C   0  0  0  0  0  0  0  0  0  0  0  0
    1.5520    0.1950    1.3050 C   0  0  0  0  0  0  0  0  0  0  0  0
    4.1240    0.5280   -1.0650 C   0  0  0  0  0  0  0  0  0  0  0  0
    2.8550   -0.2120   -0.7300 C   0  0  2  0  0  0  0  0  0  0  0  0
    1.6270    0.6880   -0.9870 C   0  0  0  0  0  0  0  0  0  0  0  0
   -0.2370    1.3710    0.2990 C   0  0  0  0  0  0  0  0  0  0  0  0
   -1.6110    1.1190    0.2100 C   0  0  0  0  0  0  0  0  0  0  0  0
   -2.4280   -0.0720   -0.0700 C   0  0  0  0  0  0  0  0  0  0  0  0
   -3.7660    0.3470   -0.0120 C   0  0  0  0  0  0  0  0  0  0  0  0
    2.8060   -0.5350    0.7780 C   0  0  2  0  0  0  0  0  0  0  0  0
    2.6710   -2.0440    0.9930 C   0  0  0  0  0  0  0  0  0  0  0  0
    2.6100   -2.5490    2.4360 C   0  0  0  0  0  0  0  0  0  0  0  0
    3.8690   -2.7810    1.5970 C   0  0  0  0  0  0  0  0  0  0  0  0
   -5.4560   -2.7860   -0.7360 F   0  0  0  0  0  0  0  0  0  0  0  0
    2.7650   -1.3870   -1.4820 F   0  0  0  0  0  0  0  0  0  0  0  0
    0.6830    0.3550    0.1110 N   0  0  2  0  0  0  0  0  0  0  0  0
   -3.7860    1.7040    0.2600 N   0  0  0  0  0  0  0  0  0  0  0  0
   -2.0100    3.3890    0.6750 N   0  0  0  0  0  0  0  0  0  0  0  0
    0.1640    2.6090    0.5790 N   0  0  0  0  0  0  0  0  0  0  0  0
    4.3660    0.9060   -2.3300 O   0  0  0  0  0  0  0  0  0  0  0  0
    4.9240    0.7800   -0.1960 O   0  0  0  0  0  0  0  0  0  0  0  0
   -0.3450    4.5730    0.9810 H   0  0  0  0  0  0  0  0  0  0  0  0
   -1.0950   -1.7250   -0.3970 H   0  0  0  0  0  0  0  0  0  0  0  0
   -2.9080   -3.3360   -0.7930 H   0  0  0  0  0  0  0  0  0  0  0  0
   -5.8140   -0.2670   -0.1960 H   0  0  0  0  0  0  0  0  0  0  0  0
    1.0510   -0.4070    2.0620 H   0  0  0  0  0  0  0  0  0  0  0  0
    1.8210    1.1700    1.7120 H   0  0  0  0  0  0  0  0  0  0  0  0
    1.9090    1.7390   -0.9390 H   0  0  0  0  0  0  0  0  0  0  0  0
    1.1820    0.4560   -1.9540 H   0  0  0  0  0  0  0  0  0  0  0  0
    3.7000   -0.1600    1.2750 H   0  0  0  0  0  0  0  0  0  0  0  0
    2.0770   -2.5740    0.2490 H   0  0  0  0  0  0  0  0  0  0  0  0
    2.6650   -1.8060    3.2320 H   0  0  0  0  0  0  0  0  0  0  0  0
    1.9750   -3.4110    2.6410 H   0  0  0  0  0  0  0  0  0  0  0  0
    4.0620   -3.7960    1.2500 H   0  0  0  0  0  0  0  0  0  0  0  0
    4.7520   -2.1910    1.8410 H   0  0  0  0  0  0  0  0  0  0  0  0
   -4.5900    2.2400    0.3460 H   0  0  0  0  0  0  0  0  0  0  0  0
    5.1940    1.3780   -2.4970 H   0  0  0  0  0  0  0  0  0  0  0  0
  8 26  2  0  0  0  0
 17 18  1  0  0  0  0
 16 18  1  0  0  0  0
  8 25  1  0  0  0  0
  8  9  1  0  0  0  0
 16 17  1  0  0  0  0
 15 16  1  0  0  0  0
  9 20  1  0  0  0  0
  9 15  1  0  0  0  0
  9 10  1  0  0  0  0
  7 15  1  0  0  0  0
 10 21  1  0  0  0  0
  7 21  1  0  0  0  0
 11 21  1  0  0  0  0
  3  4  2  0  0  0  0
  3 13  1  0  0  0  0
  4  5  1  0  0  0  0
 11 24  2  0  0  0  0
 11 12  1  0  0  0  0
 12 13  1  0  0  0  0
 13 14  2  0  0  0  0
  1 24  1  0  0  0  0
  2 12  2  0  0  0  0
  5 19  1  0  0  0  0
  5  6  2  0  0  0  0
  6 14  1  0  0  0  0
 14 22  1  0  0  0  0
  1 23  2  0  0  0  0
  2 22  1  0  0  0  0
  2 23  1  0  0  0  0
  1 27  1  0  0  0  0
  3 28  1  0  0  0  0
  4 29  1  0  0  0  0
  6 30  1  0  0  0  0
  7 31  1  0  0  0  0
  7 32  1  0  0  0  0
 10 33  1  0  0  0  0
 10 34  1  0  0  0  0
 15 35  1  0  0  0  0
 16 36  1  0  0  0  0
 17 37  1  0  0  0  0
 17 38  1  0  0  0  0
 18 39  1  0  0  0  0
 18 40  1  0  0  0  0
 22 41  1  0  0  0  0
 25 42  1  0  0  0  0
M  END
> <OPENEYE_ISO_SMILES>
c1cc2c(cc1F)[nH]c3c2c(ncn3)[N@@]4C[C@H]([C@@](C4)(C(=O)O)F)C5CC5

> <OPENEYE_INCHI>
InChI=1S/C18H16F2N4O2/c19-10-3-4-11-13(5-10)23-15-14(11)16(22-8-21-15)24-6-12(9-1-2-9)18(20,7-24)17(25)26/h3-5,8-9,12H,1-2,6-7H2,(H,25,26)(H,21,22,23)/t12-,18-/m0/s1

> <OPENEYE_INCHIKEY>
NYJHYZIQBWNOCJ-SGTLLEGYSA-N

> <FORMULA>
C18H16F2N4O2

$$$$
