WXF
  -OEChem-02242320043D

 33 35  0     1  0  0  0  0  0999 V2000
    2.7680   -0.8550   -1.6380 C   0  0  0  0  0  0  0  0  0  0  0  0
    1.9030   -1.3090   -0.4560 C   0  0  0  0  0  0  0  0  0  0  0  0
   -0.6420   -1.9720    0.6590 C   0  0  0  0  0  0  0  0  0  0  0  0
   -1.7890   -2.6670    0.3250 C   0  0  0  0  0  0  0  0  0  0  0  0
   -2.9490   -0.7300   -0.1480 C   0  0  0  0  0  0  0  0  0  0  0  0
    5.1770    1.4140    0.0850 C   0  0  0  0  0  0  0  0  0  0  0  0
    3.8100    0.8720   -0.3360 C   0  0  2  0  0  0  0  0  0  0  0  0
    2.9980    0.5060    0.9120 C   0  0  0  0  0  0  0  0  0  0  0  0
    0.5620    0.2050    0.9340 C   0  0  0  0  0  0  0  0  0  0  0  0
   -0.6420   -0.5760    0.5870 C   0  0  0  0  0  0  0  0  0  0  0  0
   -1.8290    0.0620    0.1720 C   0  0  0  0  0  0  0  0  0  0  0  0
   -3.4260    1.4130   -0.4110 C   0  0  0  0  0  0  0  0  0  0  0  0
    1.7710   -0.1830    0.4820 N   0  0  0  0  0  0  0  0  0  0  0  0
   -2.1810    1.3490   -0.0070 N   0  0  0  0  0  0  0  0  0  0  0  0
   -3.9450    0.1560   -0.5140 N   0  0  0  0  0  0  0  0  0  0  0  0
   -2.8850   -2.0450   -0.0610 N   0  0  0  0  0  0  0  0  0  0  0  0
   -4.0950    2.5550   -0.6850 O   0  0  0  0  0  0  0  0  0  0  0  0
    0.4630    1.1990    1.6280 O   0  0  0  0  0  0  0  0  0  0  0  0
    3.9870   -0.2960   -1.1410 O   0  0  0  0  0  0  0  0  0  0  0  0
    2.9920   -1.7100   -2.2740 H   0  0  0  0  0  0  0  0  0  0  0  0
    2.2300   -0.1020   -2.2140 H   0  0  0  0  0  0  0  0  0  0  0  0
    0.9170   -1.6050   -0.8160 H   0  0  0  0  0  0  0  0  0  0  0  0
    2.3790   -2.1510    0.0450 H   0  0  0  0  0  0  0  0  0  0  0  0
    0.2440   -2.5010    0.9760 H   0  0  0  0  0  0  0  0  0  0  0  0
   -1.7860   -3.7460    0.3810 H   0  0  0  0  0  0  0  0  0  0  0  0
    5.7090    0.6540    0.6560 H   0  0  0  0  0  0  0  0  0  0  0  0
    5.7540    1.6730   -0.8030 H   0  0  0  0  0  0  0  0  0  0  0  0
    5.0410    2.3030    0.7010 H   0  0  0  0  0  0  0  0  0  0  0  0
    3.2760    1.6320   -0.9070 H   0  0  0  0  0  0  0  0  0  0  0  0
    3.5850   -0.1540    1.5520 H   0  0  0  0  0  0  0  0  0  0  0  0
    2.7380    1.4120    1.4600 H   0  0  0  0  0  0  0  0  0  0  0  0
   -4.8450   -0.0730   -0.7930 H   0  0  0  0  0  0  0  0  0  0  0  0
   -4.0200    2.8450   -1.6040 H   0  0  0  0  0  0  0  0  0  0  0  0
  9 18  2  0  0  0  0
  9 10  1  0  0  0  0
  9 13  1  0  0  0  0
  3 10  2  0  0  0  0
  3  4  1  0  0  0  0
  1  2  1  0  0  0  0
  1 19  1  0  0  0  0
  2 13  1  0  0  0  0
 10 11  1  0  0  0  0
  4 16  2  0  0  0  0
  8 13  1  0  0  0  0
  5 11  2  0  0  0  0
 11 14  1  0  0  0  0
  5 16  1  0  0  0  0
  7 19  1  0  0  0  0
  5 15  1  0  0  0  0
 12 14  2  0  0  0  0
  7  8  1  0  0  0  0
  6  7  1  0  0  0  0
 12 15  1  0  0  0  0
 12 17  1  0  0  0  0
  1 20  1  0  0  0  0
  1 21  1  0  0  0  0
  2 22  1  0  0  0  0
  2 23  1  0  0  0  0
  3 24  1  0  0  0  0
  4 25  1  0  0  0  0
  6 26  1  0  0  0  0
  6 27  1  0  0  0  0
  6 28  1  0  0  0  0
  7 29  1  0  0  0  0
  8 30  1  0  0  0  0
  8 31  1  0  0  0  0
 15 32  1  0  0  0  0
 17 33  1  0  0  0  0
M  END
> <OPENEYE_ISO_SMILES>
C[C@@H]1CN(CCO1)C(=O)c2ccnc3c2nc([nH]3)O

> <OPENEYE_INCHI>
InChI=1S/C12H14N4O3/c1-7-6-16(4-5-19-7)11(17)8-2-3-13-10-9(8)14-12(18)15-10/h2-3,7H,4-6H2,1H3,(H2,13,14,15,18)/t7-/m1/s1

> <OPENEYE_INCHIKEY>
HZXBKRVXTGQUNC-SSDOTTSWSA-N

> <FORMULA>
C12H14N4O3

$$$$
