@<TRIPOS>MOLECULE
/home/pku/3cl/gett_pdb/7TQ8/7TQ8_mol2/ligand/7TQ8_IRK.pdb
 29 30 0 0 0
SMALL
GASTEIGER

@<TRIPOS>ATOM
      1  C02      -21.4500   23.0960    2.4520 C.2   401  IRK401      0.4215
      2  C04      -20.9770   25.4770    1.8540 C.3   401  IRK401      0.1761
      3  C05      -21.2260   26.5020    0.7520 C.3   401  IRK401      0.0312
      4  C06      -20.5640   26.0810   -0.5870 C.3   401  IRK401      0.0022
      5  C07      -19.0180   26.1830   -0.5190 C.3   401  IRK401      0.0001
      6  C08      -21.1170   26.9570   -1.7320 C.3   401  IRK401      0.0001
      7  C09      -21.5560   25.9880    3.1660 C.2   401  IRK401      0.2614
      8  C11      -21.0010   27.0860    5.3950 C.3   401  IRK401      0.1287
      9  C12      -20.2740   26.2840    6.4960 C.3   401  IRK401      0.0335
     10  C13      -20.7610   24.7430    6.5870 C.3   401  IRK401      0.0818
     11  C14      -20.1840   24.1110    7.5070 C.2   401  IRK401      0.2410
     12  C16      -22.6370   23.6510    7.5770 C.3   401  IRK401      0.1156
     13  C17      -22.4190   24.7090    6.9190 C.3   401  IRK401      0.0326
     14  C19      -20.6350   28.5600    5.4910 C.3   401  IRK401      0.2036
     15  C23      -22.2360   21.0320    3.2970 C.3   401  IRK401      0.2100
     16  C24      -23.2640   19.8850    3.0720 C.3   401  IRK401      0.0439
     17  C25      -22.7480   18.5180    3.5600 C.3   401  IRK401      0.0038
     18  C26      -22.9590   18.7670    2.0610 C.3   401  IRK401      0.0037
     19  C27      -21.6920   18.9130    1.1860 C.3   401  IRK401      0.0001
     20  C28      -22.0410   19.6110   -0.1460 C.3   401  IRK401      0.0000
     21  C29      -23.0520   18.7870   -0.9770 C.3   401  IRK401      0.0000
     22  N03      -21.6230   24.2270    1.5450 N.am  401  IRK401     -0.1611
     23  N10      -20.5900   26.5840    4.0940 N.am  401  IRK401     -0.2030
     24  N15      -21.3190   23.2930    8.2710 N.am  401  IRK401     -0.2054
     25  O01      -20.6500   23.1380    3.3540 O.2   401  IRK401     -0.2246
     26  O18      -19.0290   24.0460    7.7690 O.2   401  IRK401     -0.2734
     27  O20      -21.3450   29.2750    4.5050 O.3   401  IRK401     -0.2185
     28  O21      -22.7170   25.8980    3.4390 O.2   401  IRK401     -0.2715
     29  O22      -22.2840   21.9730    2.2360 O.3   401  IRK401     -0.4335
@<TRIPOS>BOND
     1     6     4    1
     2    21    20    1
     3     4     5    1
     4     4     3    1
     5    20    19    1
     6     3     2    1
     7    19    18    1
     8    22     2    1
     9    22     1   am
    10     2     7    1
    11    18    16    1
    12    18    17    1
    13    29     1    1
    14    29    15    1
    15     1    25    2
    16    16    15    1
    17    16    17    1
    18     7    28    2
    19     7    23   am
    20    23     8    1
    21    27    14    1
    22     8    14    1
    23     8     9    1
    24     9    10    1
    25    10    13    1
    26    10    11    1
    27    13    12    1
    28    11    26    2
    29    11    24   am
    30    12    24    1
