@<TRIPOS>MOLECULE
/home/pku/3cl/gett_pdb/7YGQ/7YGQ_mol2/ligand/7YGQ_HUR.pdb
 41 45 0 0 0
SMALL
GASTEIGER

@<TRIPOS>ATOM
      1  C1        64.9790  -35.1120   -8.1000 C.2   401  HUR401      0.0074
      2  C10       64.8850  -34.8090   -1.9980 C.2   401  HUR401      0.2829
      3  C11       65.5950  -33.4670   -0.0410 C.3   401  HUR401      0.1731
      4  C12       64.2820  -32.9850    0.5550 C.2   401  HUR401      0.2613
      5  C13       62.7170  -33.2700    2.5600 C.3   401  HUR401      0.1321
      6  C14       61.8070  -34.4860    2.6730 C.3   401  HUR401      0.0288
      7  C15       61.3210  -34.8660    1.2400 C.3   401  HUR401      0.0507
      8  C16       60.5910  -33.8900    0.7560 C.3   401  HUR401      0.0230
      9  C17       59.3460  -34.5700    0.0560 C.3   401  HUR401      0.0914
     10  C18       60.3950  -36.2720    1.1950 C.3   401  HUR401      0.2255
     11  C19       62.8130  -32.6260    3.6140 C.3   401  HUR401      0.2173
     12  C2        64.2850  -36.2900   -7.8480 C.2   401  HUR401     -0.0003
     13  C20       64.1120  -31.4530    3.5600 C.ar  401  HUR401      0.1203
     14  C21       64.3980  -29.2650    2.8650 C.ar  401  HUR401      0.0876
     15  C22       65.7100  -29.4790    3.2460 C.ar  401  HUR401      0.0483
     16  C23       64.0140  -28.0110    2.3480 C.ar  401  HUR401      0.0196
     17  C24       64.9470  -26.9990    2.2250 C.ar  401  HUR401      0.0016
     18  C25       66.2690  -27.2170    2.6120 C.ar  401  HUR401      0.0006
     19  C26       66.6520  -28.4610    3.1230 C.ar  401  HUR401      0.0080
     20  C27       66.6800  -32.4560    0.3090 C.3   401  HUR401      0.0311
     21  C28       68.0760  -33.0100    0.0520 C.3   401  HUR401      0.0022
     22  C29       69.0650  -31.8870   -0.2380 C.3   401  HUR401      0.0001
     23  C3        64.0100  -36.6590   -6.5450 C.2   401  HUR401      0.0186
     24  C30       68.5520  -33.8720    1.2130 C.3   401  HUR401      0.0001
     25  C4        64.4380  -35.8430   -5.4730 C.2   401  HUR401      0.0801
     26  C5        65.1220  -34.6880   -5.7210 C.2   401  HUR401      0.0280
     27  C6        65.4100  -34.3030   -7.0510 C.3   401  HUR401      0.1611
     28  C7        64.8390  -35.0000   -3.5050 C.2   401  HUR401      0.1359
     29  C8        65.3880  -34.1340   -4.4400 C.2   401  HUR401      0.0237
     30  C9        66.8390  -32.9890   -8.4580 C.3   401  HUR401      0.1749
     31  N1        64.2840  -36.0070   -4.1410 N.2   401  HUR401     -0.2410
     32  N2        65.5360  -33.6380   -1.4690 N.am  401  HUR401     -0.1927
     33  N3        63.8900  -33.6050    1.7940 N.am  401  HUR401     -0.2027
     34  N4        59.1860  -35.9410    0.8030 N.3   401  HUR401     -0.1893
     35  N5        63.5630  -30.3650    3.0380 N.ar  401  HUR401     -0.2401
     36  O1        66.1080  -33.1080   -7.2710 O.3   401  HUR401     -0.3447
     37  O2        64.4000  -35.5930   -1.2640 O.2   401  HUR401     -0.2667
     38  O3        63.6280  -32.1560    0.0430 O.2   401  HUR401     -0.2715
     39  O4        61.5460  -32.9720    4.4550 O.3   401  HUR401     -0.2142
     40  O5        60.3340  -36.8620    2.4350 O.3   401  HUR401     -0.2037
     41  S1        65.7350  -31.0940    3.7970 S.2   401  HUR401     -0.0683
@<TRIPOS>BOND
     1    30    36    1
     2     1    12    2
     3     1    27    1
     4    12    23    1
     5    36    27    1
     6    27    26    1
     7    23    25    2
     8    26    25    1
     9    26    29    2
    10    25    31    1
    11    29    28    1
    12    31    28    2
    13    28     2    1
    14     2    32   am
    15     2    37    2
    16    32     3    1
    17    22    21    1
    18     3    20    1
    19     3     4    1
    20    38     4    2
    21    21    20    1
    22    21    24    1
    23     9     8    1
    24     9    34    1
    25     4    33   am
    26     8     7    1
    27    34    10    1
    28    10     7    1
    29    10    40    1
    30     7     6    1
    31    33     5    1
    32    17    16   ar
    33    17    18   ar
    34    16    14   ar
    35     5     6    1
    36     5    11    1
    37    18    19   ar
    38    14    35   ar
    39    14    15   ar
    40    35    13   ar
    41    19    15   ar
    42    15    41   ar
    43    13    11    1
    44    13    41   ar
    45    11    39    1
