@<TRIPOS>MOLECULE
/home/pku/3cl/gett_pdb/5SOW/5SOW_mol2/ligand/5SOW_WXG.pdb
 31 33 0 0 0
SMALL
GASTEIGER

@<TRIPOS>ATOM
      1  C10      -45.9680  -29.2110    4.4880 C.3   201  WXG201      0.1933
      2  C02      -44.5930  -32.6290    2.0260 C.2   201  WXG201      0.2156
      3  C03      -45.2960  -33.4980    0.8740 C.3   201  WXG201      0.0256
      4  C04      -45.3870  -32.7680   -0.2560 C.3   201  WXG201     -0.0289
      5  C05      -44.7650  -31.3560    0.0300 C.3   201  WXG201      0.0151
      6  C07      -43.6420  -30.3050    2.2600 C.3   201  WXG201      0.0237
      7  C08      -44.4800  -29.0420    2.0080 C.3   201  WXG201      0.0122
      8  C12      -44.6090  -29.2110    6.3420 C.2   201  WXG201      0.1043
      9  C14      -46.9460  -29.0920    6.6520 C.ar  201  WXG201      0.1476
     10  C16      -49.0800  -29.0020    6.2630 C.ar  201  WXG201      0.0952
     11  C18      -47.1300  -29.1280    5.3050 C.ar  201  WXG201      0.1237
     12  N06      -44.2800  -31.4060    1.5210 N.am  201  WXG201     -0.3007
     13  N11      -44.7560  -29.2430    5.0240 N.2   201  WXG201     -0.2471
     14  N13      -45.6710  -29.1410    7.1300 N.pl3 201  WXG201     -0.1844
     15  N15      -48.1670  -29.0170    7.2470 N.ar  201  WXG201     -0.3314
     16  N17      -48.4660  -29.0690    5.0710 N.ar  201  WXG201     -0.2354
     17  O01      -44.3710  -32.9990    3.1300 O.2   201  WXG201     -0.2756
     18  S09      -46.1690  -29.2610    2.6750 S.3   201  WXG201     -0.1198
     19 H031      -46.2830  -33.8080    1.2200 H     201  WXG201      0.0359
     20 H032      -44.6740  -34.3650    0.6810 H     201  WXG201      0.0359
     21 H041      -46.4230  -32.6710   -0.5610 H     201  WXG201      0.0285
     22 H042      -44.8220  -33.2560   -1.0470 H     201  WXG201      0.0285
     23 H052      -43.9210  -31.1710   -0.6310 H     201  WXG201      0.0465
     24 H051      -45.5280  -30.5850   -0.0960 H     201  WXG201      0.0465
     25 H072      -42.6280  -30.1600    1.9100 H     201  WXG201      0.0472
     26 H071      -43.6320  -30.5590    3.3150 H     201  WXG201      0.0472
     27 H081      -44.0000  -28.2010    2.4870 H     201  WXG201      0.0392
     28 H082      -44.5660  -28.8540    0.9530 H     201  WXG201      0.0392
     29 H121      -43.6120  -29.2320    6.7730 H     201  WXG201      0.1015
     30 H161      -50.1450  -28.9600    6.3880 H     201  WXG201      0.1027
     31 H151      -48.3520  -28.9930    8.2290 H     201  WXG201      0.1680
@<TRIPOS>BOND
     1    22     4    1
     2    23     5    1
     3    21     4    1
     4     4     5    1
     5     4     3    1
     6    24     5    1
     7     5    12    1
     8    20     3    1
     9     3    19    1
    10     3     2    1
    11    28     7    1
    12    12     2   am
    13    12     6    1
    14    25     6    1
    15     7     6    1
    16     7    27    1
    17     7    18    1
    18     2    17    2
    19     6    26    1
    20    18     1    1
    21     1    13    1
    22     1    11    1
    23    13     8    2
    24    16    11   ar
    25    16    10   ar
    26    11     9   ar
    27    10    30    1
    28    10    15   ar
    29     8    29    1
    30     8    14    1
    31     9    14    1
    32     9    15   ar
    33    15    31    1
