@<TRIPOS>MOLECULE
/home/pku/3cl/gett_pdb/7L5D/7L5D_mol2/ligand/7L5D_XNJ.pdb
 35 39 0 0 0
SMALL
GASTEIGER

@<TRIPOS>ATOM
      1  CBE       19.2060    5.8110   24.2590 C.3   401  XNJ401      0.0914
      2  CBF       19.8980    6.1320   22.9560 C.3   401  XNJ401      0.1060
      3  NBG       18.9630    6.7060   21.9970 N.3   401  XNJ401     -0.2151
      4  CBH       18.3780    7.9130   22.5650 C.3   401  XNJ401      0.1060
      5  CBI       17.6790    7.6150   23.8690 C.3   401  XNJ401      0.0914
      6  NBD       18.6010    7.0140   24.8350 N.3   401  XNJ401     -0.2664
      7  CBC       17.9580    6.7520   26.1290 C.3   401  XNJ401      0.0992
      8  CAZ       16.7080    5.9010   26.0670 C.ar  401  XNJ401     -0.0061
      9  CBA       15.4530    6.4840   25.9240 C.ar  401  XNJ401     -0.0028
     10  CBB       14.3090    5.7080   25.8710 C.ar  401  XNJ401      0.0043
     11  CAY       16.7830    4.5180   26.1930 C.ar  401  XNJ401     -0.0028
     12  CAX       15.6370    3.7420   26.1490 C.ar  401  XNJ401      0.0043
     13  CAV       14.3920    4.3300   25.9800 C.ar  401  XNJ401      0.0554
     14  CAU       13.1690    3.4730   25.9430 C.2   401  XNJ401      0.2690
     15  OAW       13.2020    2.3170   26.3490 O.2   401  XNJ401     -0.2680
     16  NAT       12.0610    4.0230   25.4010 N.am  401  XNJ401     -0.1754
     17  CAO       10.8400    3.3460   25.2150 C.ar  401  XNJ401      0.0750
     18  CAN       10.5040    2.8780   23.9530 C.ar  401  XNJ401      0.0328
     19  CAP        9.9870    3.1210   26.2890 C.ar  401  XNJ401      0.0164
     20  CAQ        8.8020    2.4360   26.0960 C.ar  401  XNJ401     -0.0016
     21  CAR        8.4380    1.9620   24.8350 C.ar  401  XNJ401     -0.0064
     22  CAS        7.1380    1.2290   24.6620 C.3   401  XNJ401      0.0324
     23  CAM        9.3030    2.1990   23.7630 C.ar  401  XNJ401      0.0699
     24  NAL        8.9660    1.7080   22.4840 N.pl3 401  XNJ401     -0.1888
     25  CAJ        9.8000    1.2110   21.5330 C.ar  401  XNJ401      0.1834
     26  NAK        9.3860    0.9060   20.3390 N.ar  401  XNJ401     -0.2225
     27  SAI       11.4890    0.8990   21.8090 S.2   401  XNJ401     -0.0492
     28  CAH       11.6120    0.2530   20.2230 C.ar  401  XNJ401      0.0573
     29  CAG       10.4140    0.3230   19.5950 C.ar  401  XNJ401      0.0913
     30  CAF       10.1190   -0.1640   18.2440 C.ar  401  XNJ401      0.0374
     31  CAA       11.0720   -0.8400   17.4910 C.ar  401  XNJ401      0.0047
     32  CAB       10.7610   -1.3020   16.2320 C.ar  401  XNJ401      0.0207
     33  CAC        9.4960   -1.0660   15.7460 C.ar  401  XNJ401      0.0989
     34  NAD        8.5490   -0.4320   16.4520 N.ar  401  XNJ401     -0.2423
     35  CAE        8.8680    0.0100   17.6730 C.ar  401  XNJ401      0.1004
@<TRIPOS>BOND
     1    33    32   ar
     2    33    34   ar
     3    32    31   ar
     4    34    35   ar
     5    31    30   ar
     6    35    30   ar
     7    30    29    1
     8    29    28   ar
     9    29    26   ar
    10    28    27   ar
    11    26    25   ar
    12    25    27   ar
    13    25    24    1
    14     3     4    1
    15     3     2    1
    16    24    23    1
    17     4     5    1
    18     2     1    1
    19    23    18   ar
    20    23    21   ar
    21     5     6    1
    22    18    17   ar
    23     1     6    1
    24    22    21    1
    25     6     7    1
    26    21    20   ar
    27    17    16    1
    28    17    19   ar
    29    16    14   am
    30    10     9   ar
    31    10    13   ar
    32     9     8   ar
    33    14    13    1
    34    14    15    2
    35    13    12   ar
    36     8     7    1
    37     8    11   ar
    38    20    19   ar
    39    12    11   ar
