@<TRIPOS>MOLECULE
/home/pku/3cl/gett_pdb/5RSU/5RSU_mol2/ligand/5RSU_OHB.pdb
 17 17 0 0 0
SMALL
GASTEIGER

@<TRIPOS>ATOM
      1  O        -48.7680  -29.0570    3.3940 O.2   201  OHB201     -0.2703
      2  C        -48.5200  -29.0480    4.5380 C.2   201  OHB201      0.2451
      3  N        -47.1690  -29.0140    4.9780 N.am  201  OHB201     -0.3252
      4  C1       -49.6300  -29.1220    5.5890 C.ar  201  OHB201      0.0778
      5  C6       -50.8930  -29.3370    5.1500 C.ar  201  OHB201      0.1289
      6  O1       -51.0410  -29.4320    3.8120 O.3   201  OHB201     -0.5060
      7  C5       -51.9820  -29.4560    5.9640 C.ar  201  OHB201     -0.0194
      8  C4       -51.8210  -29.3530    7.3090 C.ar  201  OHB201     -0.0583
      9  C3       -50.5660  -29.1310    7.7760 C.ar  201  OHB201     -0.0608
     10  C2       -49.4500  -29.0330    6.9500 C.ar  201  OHB201     -0.0461
     11  H1       -46.9900  -29.0150    5.8190 H     201  OHB201      0.1453
     12  H2       -46.5300  -28.9770    4.4030 H     201  OHB201      0.1453
     13  H3       -51.6490  -29.9660    3.6770 H     201  OHB201      0.2922
     14  H4       -52.8280  -29.5890    5.6010 H     201  OHB201      0.0654
     15  H5       -52.5460  -29.4160    7.8880 H     201  OHB201      0.0619
     16  H6       -50.4420  -29.0690    8.6960 H     201  OHB201      0.0618
     17  H7       -48.6040  -28.8870    7.3090 H     201  OHB201      0.0626
@<TRIPOS>BOND
     1     1     2    2
     2    13     6    1
     3     6     5    1
     4    12     3    1
     5     2     3   am
     6     2     4    1
     7     3    11    1
     8     5     4   ar
     9     5     7   ar
    10     4    10   ar
    11    14     7    1
    12     7     8   ar
    13    10    17    1
    14    10     9   ar
    15     8     9   ar
    16     8    15    1
    17     9    16    1
