RZR
  -OEChem-02242320043D

 45 47  0     1  0  0  0  0  0999 V2000
    3.3220    0.8830    0.1420 C   0  0  0  0  0  0  0  0  0  0  0  0
    4.5810   -0.9750    0.9020 C   0  0  0  0  0  0  0  0  0  0  0  0
    4.4550    0.5320    0.8520 C   0  0  0  0  0  0  0  0  0  0  0  0
    3.2930   -2.7810   -0.2750 C   0  0  0  0  0  0  0  0  0  0  0  0
    3.1830   -1.5100    0.5280 C   0  0  2  0  0  0  0  0  0  0  0  0
    2.6100   -0.3650   -0.3340 C   0  0  1  0  0  0  0  0  0  0  0  0
    3.8130    3.2020    0.5030 C   0  0  0  0  0  0  0  0  0  0  0  0
    3.0010    2.2190   -0.0290 C   0  0  0  0  0  0  0  0  0  0  0  0
   -7.8600   -0.9970    1.4830 C   0  0  0  0  0  0  0  0  0  0  0  0
   -5.8310   -0.1210    0.4580 C   0  0  0  0  0  0  0  0  0  0  0  0
   -3.7900    0.7170   -0.4220 C   0  0  0  0  0  0  0  0  0  0  0  0
   -3.2180    1.2120   -1.5900 C   0  0  0  0  0  0  0  0  0  0  0  0
   -1.8620    1.0960   -1.7960 C   0  0  0  0  0  0  0  0  0  0  0  0
   -1.0600    0.4800   -0.8310 C   0  0  0  0  0  0  0  0  0  0  0  0
    0.3940    0.3540   -1.0490 C   0  0  0  0  0  0  0  0  0  0  0  0
    4.9480    2.8510    1.2100 C   0  0  0  0  0  0  0  0  0  0  0  0
    5.2670    1.5190    1.3850 C   0  0  0  0  0  0  0  0  0  0  0  0
   -1.6380   -0.0160    0.3410 C   0  0  0  0  0  0  0  0  0  0  0  0
   -2.9940    0.1090    0.5430 C   0  0  0  0  0  0  0  0  0  0  0  0
   -7.1360    0.0450    0.7510 N   0  0  0  0  0  0  0  0  0  0  0  0
   -5.1640    0.8370   -0.2160 N   0  0  0  0  0  0  0  0  0  0  0  0
    1.1660   -0.2400   -0.1170 N   0  0  0  0  0  0  0  0  0  0  0  0
    2.8580   -2.8240   -1.4010 O   0  0  0  0  0  0  0  0  0  0  0  0
    3.8740   -3.8660    0.2620 O   0  0  0  0  0  0  0  0  0  0  0  0
    0.8960    0.7860   -2.0690 O   0  0  0  0  0  0  0  0  0  0  0  0
   -5.2550   -1.1350    0.8020 O   0  0  0  0  0  0  0  0  0  0  0  0
    5.3230   -1.3170    0.1800 H   0  0  0  0  0  0  0  0  0  0  0  0
    4.8540   -1.3000    1.9060 H   0  0  0  0  0  0  0  0  0  0  0  0
    2.5770   -1.6690    1.4200 H   0  0  0  0  0  0  0  0  0  0  0  0
    2.8210   -0.5430   -1.3880 H   0  0  0  0  0  0  0  0  0  0  0  0
    3.5610    4.2430    0.3680 H   0  0  0  0  0  0  0  0  0  0  0  0
    2.1140    2.4930   -0.5800 H   0  0  0  0  0  0  0  0  0  0  0  0
   -8.8960   -0.6870    1.6260 H   0  0  0  0  0  0  0  0  0  0  0  0
   -7.8340   -1.9260    0.9140 H   0  0  0  0  0  0  0  0  0  0  0  0
   -7.3900   -1.1520    2.4540 H   0  0  0  0  0  0  0  0  0  0  0  0
   -3.8380    1.6880   -2.3350 H   0  0  0  0  0  0  0  0  0  0  0  0
   -1.4180    1.4790   -2.7030 H   0  0  0  0  0  0  0  0  0  0  0  0
    5.5840    3.6190    1.6270 H   0  0  0  0  0  0  0  0  0  0  0  0
    6.1540    1.2460    1.9380 H   0  0  0  0  0  0  0  0  0  0  0  0
   -1.0210   -0.4920    1.0880 H   0  0  0  0  0  0  0  0  0  0  0  0
   -3.4420   -0.2740    1.4490 H   0  0  0  0  0  0  0  0  0  0  0  0
   -7.5950    0.8540    0.4770 H   0  0  0  0  0  0  0  0  0  0  0  0
   -5.6400    1.6110   -0.5570 H   0  0  0  0  0  0  0  0  0  0  0  0
    0.7660   -0.5850    0.6960 H   0  0  0  0  0  0  0  0  0  0  0  0
    3.9210   -4.6570   -0.2920 H   0  0  0  0  0  0  0  0  0  0  0  0
  7 16  2  0  0  0  0
 16 17  1  0  0  0  0
  7  8  1  0  0  0  0
  3 17  2  0  0  0  0
  1  8  2  0  0  0  0
  1  3  1  0  0  0  0
  2  3  1  0  0  0  0
  1  6  1  0  0  0  0
  2  5  1  0  0  0  0
  4 23  2  0  0  0  0
 15 25  2  0  0  0  0
  5  6  1  0  0  0  0
  6 22  1  0  0  0  0
  4  5  1  0  0  0  0
  4 24  1  0  0  0  0
 15 22  1  0  0  0  0
 14 15  1  0  0  0  0
 13 14  2  0  0  0  0
 14 18  1  0  0  0  0
 12 13  1  0  0  0  0
 18 19  2  0  0  0  0
 11 12  2  0  0  0  0
 11 19  1  0  0  0  0
 11 21  1  0  0  0  0
 10 26  2  0  0  0  0
 10 21  1  0  0  0  0
 10 20  1  0  0  0  0
  9 20  1  0  0  0  0
  2 27  1  0  0  0  0
  2 28  1  0  0  0  0
  5 29  1  0  0  0  0
  6 30  1  0  0  0  0
  7 31  1  0  0  0  0
  8 32  1  0  0  0  0
  9 33  1  0  0  0  0
  9 34  1  0  0  0  0
  9 35  1  0  0  0  0
 12 36  1  0  0  0  0
 13 37  1  0  0  0  0
 16 38  1  0  0  0  0
 17 39  1  0  0  0  0
 18 40  1  0  0  0  0
 19 41  1  0  0  0  0
 20 42  1  0  0  0  0
 21 43  1  0  0  0  0
 22 44  1  0  0  0  0
 24 45  1  0  0  0  0
M  END
> <OPENEYE_ISO_SMILES>
CNC(=O)Nc1ccc(cc1)C(=O)N[C@H]2c3ccccc3C[C@@H]2C(=O)O

> <OPENEYE_INCHI>
InChI=1S/C19H19N3O4/c1-20-19(26)21-13-8-6-11(7-9-13)17(23)22-16-14-5-3-2-4-12(14)10-15(16)18(24)25/h2-9,15-16H,10H2,1H3,(H,22,23)(H,24,25)(H2,20,21,26)/t15-,16-/m0/s1

> <OPENEYE_INCHIKEY>
BAKOSBATOMEZBB-HOTGVXAUSA-N

> <FORMULA>
C19H19N3O4

$$$$
