@<TRIPOS>MOLECULE
/home/pku/3cl/gett_pdb/5SQ0/5SQ0_mol2/ligand/5SQ0_QJG.pdb
 34 36 0 0 0
SMALL
GASTEIGER

@<TRIPOS>ATOM
      1  C16      -49.5730  -31.8640    4.3950 C.ar  201  QJG201     -0.0329
      2  C17      -48.6490  -32.0320    3.3480 C.ar  201  QJG201      0.0757
      3  C15      -49.5360  -30.7140    5.1650 C.ar  201  QJG201     -0.0244
      4  C13      -48.6000  -29.7240    4.9110 C.ar  201  QJG201      0.1241
      5  C12      -47.6890  -29.8820    3.8750 C.ar  201  QJG201     -0.0165
      6  C11      -47.7190  -31.0510    3.0900 C.ar  201  QJG201      0.0154
      7  C10      -46.8100  -31.2470    2.0320 C.ar  201  QJG201      0.0512
      8  C19      -47.8680  -33.3670    1.6240 C.ar  201  QJG201      0.2135
      9  C01      -42.6890  -28.9840    2.1340 C.3   201  QJG201     -0.0463
     10  C02      -43.1470  -29.9040    1.0600 C.3   201  QJG201      0.0262
     11  C03      -42.4390  -31.1630    1.0180 C.3   201  QJG201     -0.0105
     12  C04      -43.6610  -31.8610    1.4400 C.3   201  QJG201      0.0677
     13  C05      -43.5520  -32.4370    2.8050 C.2   201  QJG201      0.0622
     14  C09      -45.7560  -30.2030    1.6740 C.2   201  QJG201      0.2482
     15  C21      -46.9010  -32.4230    1.2990 C.ar  201  QJG201      0.0125
     16  F14      -48.5980  -28.6020    5.6880 F     201  QJG201     -0.2055
     17  N08      -44.3850  -30.6070    1.4250 N.am  201  QJG201     -0.2864
     18  N18      -48.7080  -33.1600    2.6220 N.ar  201  QJG201     -0.2130
     19  O06      -43.6430  -33.6820    2.9730 O.co2 201  QJG201     -0.5479
     20  O07      -43.3730  -31.6740    3.7910 O.co2 201  QJG201     -0.5479
     21  O20      -47.9490  -34.5500    0.8800 O.3   201  QJG201     -0.4924
     22  O22      -46.0590  -29.0610    1.5770 O.2   201  QJG201     -0.2699
     23 H161      -50.3000  -32.6390    4.6090 H     201  QJG201      0.0640
     24 H151      -50.2330  -30.5840    5.9760 H     201  QJG201      0.0647
     25 H121      -46.9550  -29.1100    3.6720 H     201  QJG201      0.0653
     26 H011      -41.7450  -28.5350    1.8500 H     201  QJG201      0.0248
     27 H013      -42.5640  -29.5350    3.0580 H     201  QJG201      0.0248
     28 H012      -43.4300  -28.2070    2.2750 H     201  QJG201      0.0248
     29 H021      -43.2040  -29.4420    0.0850 H     201  QJG201      0.0499
     30 H031      -41.6460  -31.2210    1.7510 H     201  QJG201      0.0305
     31 H032      -42.1330  -31.4320    0.0130 H     201  QJG201      0.0305
     32 H041      -44.0250  -32.5530    0.6970 H     201  QJG201      0.0563
     33 H211      -46.2160  -32.5990    0.4820 H     201  QJG201      0.0678
     34 H201      -47.9350  -34.3350   -0.0380 H     201  QJG201      0.2937
@<TRIPOS>UNITY_ATOM_ATTR
20 1
charge -1
@<TRIPOS>BOND
     1    34    21    1
     2    31    11    1
     3    29    10    1
     4    33    15    1
     5    32    12    1
     6    21     8    1
     7    11    10    1
     8    11    12    1
     9    11    30    1
    10    10    17    1
    11    10     9    1
    12    15     8   ar
    13    15     7   ar
    14    17    12    1
    15    17    14   am
    16    12    13    1
    17    22    14    2
    18     8    18   ar
    19    14     7    1
    20    26     9    1
    21     7     6   ar
    22     9    28    1
    23     9    27    1
    24    18     2   ar
    25    13    19   ar
    26    13    20   ar
    27     6     2   ar
    28     6     5   ar
    29     2     1   ar
    30    25     5    1
    31     5     4   ar
    32     1    23    1
    33     1     3   ar
    34     4     3   ar
    35     4    16    1
    36     3    24    1
