UHS
  -OEChem-02242320043D

 58 59  0     1  0  0  0  0  0999 V2000
   -2.0680    1.8030    0.4870 N   0  0  0  0  0  0  0  0  0  0  0  0
    1.8350   -2.0200    0.7050 N   0  0  0  0  0  0  0  0  0  0  0  0
   -1.3160    0.7260    0.7890 C   0  0  0  0  0  0  0  0  0  0  0  0
   -1.8630    3.0640    1.2040 C   0  0  0  0  0  0  0  0  0  0  0  0
   -0.4250    3.5410    0.9960 C   0  0  0  0  0  0  0  0  0  0  0  0
   -2.8330    4.1190    0.6680 C   0  0  0  0  0  0  0  0  0  0  0  0
   -2.1180    2.8490    2.6970 C   0  0  0  0  0  0  0  0  0  0  0  0
   -0.1930   -0.6000   -2.0710 C   0  0  0  0  0  0  0  0  0  0  0  0
   -2.4570    0.1500   -2.1670 C   0  0  0  0  0  0  0  0  0  0  0  0
    2.7300   -0.1760    0.1920 C   0  0  0  0  0  0  0  0  0  0  0  0
    3.8180    0.8330   -0.0680 C   0  0  0  0  0  0  0  0  0  0  0  0
    3.6470    2.0230    0.8780 C   0  0  0  0  0  0  0  0  0  0  0  0
   -0.4700    0.8010    1.6550 O   0  0  0  0  0  0  0  0  0  0  0  0
   -1.5270   -0.5720    0.0520 C   0  0  2  0  0  0  0  0  0  0  0  0
   -0.5260   -1.5490    0.4870 N   0  0  0  0  0  0  0  0  0  0  0  0
    0.8300   -1.2270    0.4380 C   0  0  0  0  0  0  0  0  0  0  0  0
    1.3970    0.0270    0.0870 C   0  0  0  0  0  0  0  0  0  0  0  0
    5.1830    0.1840    0.1700 C   0  0  0  0  0  0  0  0  0  0  0  0
    3.7290    1.3170   -1.5170 C   0  0  0  0  0  0  0  0  0  0  0  0
    2.8940   -1.4510    0.5730 O   0  0  0  0  0  0  0  0  0  0  0  0
   -0.9160   -2.7590    0.9350 C   0  0  0  0  0  0  0  0  0  0  0  0
   -0.0930   -3.5410    1.3610 O   0  0  0  0  0  0  0  0  0  0  0  0
   -2.3740   -3.1390    0.9080 C   0  0  0  0  0  0  0  0  0  0  0  0
   -2.5560   -4.5100    1.5610 C   0  0  0  0  0  0  0  0  0  0  0  0
   -1.3880   -0.3350   -1.4300 C   0  0  0  0  0  0  0  0  0  0  0  0
   -2.2830    0.3520   -3.5280 C   0  0  0  0  0  0  0  0  0  0  0  0
   -1.0550    0.0730   -4.0980 C   0  0  0  0  0  0  0  0  0  0  0  0
   -0.0620   -0.3920   -3.3670 N   0  0  0  0  0  0  0  0  0  0  0  0
   -2.7420    1.7440   -0.2080 H   0  0  0  0  0  0  0  0  0  0  0  0
   -0.2430    3.6940   -0.0680 H   0  0  0  0  0  0  0  0  0  0  0  0
   -0.2720    4.4790    1.5290 H   0  0  0  0  0  0  0  0  0  0  0  0
    0.2660    2.7890    1.3780 H   0  0  0  0  0  0  0  0  0  0  0  0
   -3.8580    3.7790    0.8160 H   0  0  0  0  0  0  0  0  0  0  0  0
   -2.6810    5.0570    1.2010 H   0  0  0  0  0  0  0  0  0  0  0  0
   -2.6510    4.2720   -0.3960 H   0  0  0  0  0  0  0  0  0  0  0  0
   -1.4270    2.0970    3.0790 H   0  0  0  0  0  0  0  0  0  0  0  0
   -1.9660    3.7870    3.2310 H   0  0  0  0  0  0  0  0  0  0  0  0
   -3.1430    2.5090    2.8450 H   0  0  0  0  0  0  0  0  0  0  0  0
    0.6450   -0.9780   -1.5040 H   0  0  0  0  0  0  0  0  0  0  0  0
   -3.4030    0.3660   -1.6930 H   0  0  0  0  0  0  0  0  0  0  0  0
    3.7100    1.6790    1.9100 H   0  0  0  0  0  0  0  0  0  0  0  0
    4.4340    2.7530    0.6890 H   0  0  0  0  0  0  0  0  0  0  0  0
    2.6750    2.4850    0.7080 H   0  0  0  0  0  0  0  0  0  0  0  0
   -2.5250   -0.9530    0.2670 H   0  0  0  0  0  0  0  0  0  0  0  0
    0.8830    0.9330   -0.1970 H   0  0  0  0  0  0  0  0  0  0  0  0
    5.3050   -0.6640   -0.5050 H   0  0  0  0  0  0  0  0  0  0  0  0
    5.9700    0.9140   -0.0190 H   0  0  0  0  0  0  0  0  0  0  0  0
    5.2470   -0.1600    1.2020 H   0  0  0  0  0  0  0  0  0  0  0  0
    2.7570    1.7790   -1.6870 H   0  0  0  0  0  0  0  0  0  0  0  0
    4.5160    2.0470   -1.7060 H   0  0  0  0  0  0  0  0  0  0  0  0
    3.8510    0.4690   -2.1910 H   0  0  0  0  0  0  0  0  0  0  0  0
   -2.9540   -2.3950    1.4550 H   0  0  0  0  0  0  0  0  0  0  0  0
   -2.7190   -3.1800   -0.1250 H   0  0  0  0  0  0  0  0  0  0  0  0
   -2.2110   -4.4680    2.5950 H   0  0  0  0  0  0  0  0  0  0  0  0
   -3.6110   -4.7850    1.5410 H   0  0  0  0  0  0  0  0  0  0  0  0
   -1.9770   -5.2530    1.0140 H   0  0  0  0  0  0  0  0  0  0  0  0
   -3.0950    0.7280   -4.1330 H   0  0  0  0  0  0  0  0  0  0  0  0
   -0.9100    0.2310   -5.1570 H   0  0  0  0  0  0  0  0  0  0  0  0
 27 28  2  0  0  0  0
 26 27  1  0  0  0  0
  8 28  1  0  0  0  0
  9 26  2  0  0  0  0
  8 25  2  0  0  0  0
 23 24  1  0  0  0  0
  9 25  1  0  0  0  0
 14 25  1  0  0  0  0
  3 13  2  0  0  0  0
 21 23  1  0  0  0  0
  3 14  1  0  0  0  0
 14 15  1  0  0  0  0
 21 22  2  0  0  0  0
 15 21  1  0  0  0  0
  1  3  1  0  0  0  0
 15 16  1  0  0  0  0
 16 17  1  0  0  0  0
 10 17  2  0  0  0  0
 11 19  1  0  0  0  0
  2 16  2  0  0  0  0
  1  4  1  0  0  0  0
  4  7  1  0  0  0  0
  4  6  1  0  0  0  0
  4  5  1  0  0  0  0
 10 11  1  0  0  0  0
 10 20  1  0  0  0  0
 11 12  1  0  0  0  0
 11 18  1  0  0  0  0
  2 20  1  0  0  0  0
  1 29  1  0  0  0  0
  5 30  1  0  0  0  0
  5 31  1  0  0  0  0
  5 32  1  0  0  0  0
  6 33  1  0  0  0  0
  6 34  1  0  0  0  0
  6 35  1  0  0  0  0
  7 36  1  0  0  0  0
  7 37  1  0  0  0  0
  7 38  1  0  0  0  0
  8 39  1  0  0  0  0
  9 40  1  0  0  0  0
 12 41  1  0  0  0  0
 12 42  1  0  0  0  0
 12 43  1  0  0  0  0
 14 44  1  0  0  0  0
 17 45  1  0  0  0  0
 18 46  1  0  0  0  0
 18 47  1  0  0  0  0
 18 48  1  0  0  0  0
 19 49  1  0  0  0  0
 19 50  1  0  0  0  0
 19 51  1  0  0  0  0
 23 52  1  0  0  0  0
 23 53  1  0  0  0  0
 24 54  1  0  0  0  0
 24 55  1  0  0  0  0
 24 56  1  0  0  0  0
 26 57  1  0  0  0  0
 27 58  1  0  0  0  0
M  END
> <OPENEYE_ISO_SMILES>
CCC(=O)N(c1cc(on1)C(C)(C)C)[C@H](c2cccnc2)C(=O)NC(C)(C)C

> <OPENEYE_INCHI>
InChI=1S/C21H30N4O3/c1-8-17(26)25(16-12-15(28-24-16)20(2,3)4)18(14-10-9-11-22-13-14)19(27)23-21(5,6)7/h9-13,18H,8H2,1-7H3,(H,23,27)/t18-/m1/s1

> <OPENEYE_INCHIKEY>
BFKJCDNTNNMOGO-GOSISDBHSA-N

> <FORMULA>
C21H30N4O3

$$$$
