W44
  -OEChem-02242320043D

 36 39  0     1  0  0  0  0  0999 V2000
    2.5900    1.4420    0.8120 N   0  0  0  0  0  0  0  0  0  0  0  0
    2.0670    1.6380   -0.5350 C   0  0  2  0  0  0  0  0  0  0  0  0
    0.5900    2.0170   -0.5250 C   0  0  0  0  0  0  0  0  0  0  0  0
   -0.2540    0.7790   -0.3660 C   0  0  0  0  0  0  0  0  0  0  0  0
   -1.6740    0.6860   -0.0930 C   0  0  0  0  0  0  0  0  0  0  0  0
   -2.6650    1.6510    0.1080 C   0  0  0  0  0  0  0  0  0  0  0  0
   -4.2370   -0.1580    0.3940 C   0  0  0  0  0  0  0  0  0  0  0  0
    2.0410    0.2570    1.4760 C   0  0  0  0  0  0  0  0  0  0  0  0
    3.7610   -1.1190    0.4630 O   0  0  0  0  0  0  0  0  0  0  0  0
    2.3490   -0.9910    0.6400 C   0  0  2  0  0  0  0  0  0  0  0  0
    1.6650   -0.8180   -0.7290 C   0  0  2  0  0  0  0  0  0  0  0  0
    2.3000    0.4070   -1.4080 C   0  0  0  0  0  0  0  0  0  0  0  0
    0.2120   -0.4850   -0.4590 C   0  0  0  0  0  0  0  0  0  0  0  0
   -1.9750   -0.7000   -0.0470 C   0  0  0  0  0  0  0  0  0  0  0  0
   -0.8110   -1.3760   -0.2760 N   0  0  0  0  0  0  0  0  0  0  0  0
   -0.6770   -2.8340   -0.3190 C   0  0  0  0  0  0  0  0  0  0  0  0
   -3.2750   -1.1350    0.1990 C   0  0  0  0  0  0  0  0  0  0  0  0
   -3.9370    1.1940    0.3490 C   0  0  0  0  0  0  0  0  0  0  0  0
    2.4550    2.2680    1.3760 H   0  0  0  0  0  0  0  0  0  0  0  0
    2.6190    2.4610   -0.9890 H   0  0  0  0  0  0  0  0  0  0  0  0
    0.3950    2.6970    0.3050 H   0  0  0  0  0  0  0  0  0  0  0  0
    0.3360    2.5100   -1.4630 H   0  0  0  0  0  0  0  0  0  0  0  0
   -2.4410    2.7070    0.0750 H   0  0  0  0  0  0  0  0  0  0  0  0
   -5.2550   -0.4600    0.5870 H   0  0  0  0  0  0  0  0  0  0  0  0
    2.4910    0.1520    2.4630 H   0  0  0  0  0  0  0  0  0  0  0  0
    0.9610    0.3660    1.5800 H   0  0  0  0  0  0  0  0  0  0  0  0
    4.2540   -1.2050    1.2910 H   0  0  0  0  0  0  0  0  0  0  0  0
    1.9570   -1.8760    1.1400 H   0  0  0  0  0  0  0  0  0  0  0  0
    1.7590   -1.7180   -1.3360 H   0  0  0  0  0  0  0  0  0  0  0  0
    1.8410    0.5610   -2.3850 H   0  0  0  0  0  0  0  0  0  0  0  0
    3.3710    0.2430   -1.5290 H   0  0  0  0  0  0  0  0  0  0  0  0
   -0.4520   -3.2080    0.6800 H   0  0  0  0  0  0  0  0  0  0  0  0
   -1.6100   -3.2750   -0.6710 H   0  0  0  0  0  0  0  0  0  0  0  0
    0.1320   -3.1050   -0.9980 H   0  0  0  0  0  0  0  0  0  0  0  0
   -3.5220   -2.1850    0.2370 H   0  0  0  0  0  0  0  0  0  0  0  0
   -4.7290    1.9110    0.5080 H   0  0  0  0  0  0  0  0  0  0  0  0
  1  8  1  0  0  0  0
  8 10  1  0  0  0  0
  9 10  1  0  0  0  0
  1  2  1  0  0  0  0
  2 12  1  0  0  0  0
 11 12  1  0  0  0  0
  2  3  1  0  0  0  0
 10 11  1  0  0  0  0
 11 13  1  0  0  0  0
  3  4  1  0  0  0  0
  4 13  2  0  0  0  0
 13 15  1  0  0  0  0
  4  5  1  0  0  0  0
 15 16  1  0  0  0  0
 14 15  1  0  0  0  0
  5 14  2  0  0  0  0
  5  6  1  0  0  0  0
 14 17  1  0  0  0  0
  6 18  2  0  0  0  0
  7 17  2  0  0  0  0
  7 18  1  0  0  0  0
  1 19  1  0  0  0  0
  2 20  1  0  0  0  0
  3 21  1  0  0  0  0
  3 22  1  0  0  0  0
  6 23  1  0  0  0  0
  7 24  1  0  0  0  0
  8 25  1  0  0  0  0
  8 26  1  0  0  0  0
  9 27  1  0  0  0  0
 10 28  1  0  0  0  0
 11 29  1  0  0  0  0
 12 30  1  0  0  0  0
 12 31  1  0  0  0  0
 16 32  1  0  0  0  0
 16 33  1  0  0  0  0
 16 34  1  0  0  0  0
 17 35  1  0  0  0  0
 18 36  1  0  0  0  0
M  END
> <OPENEYE_ISO_SMILES>
Cn1c2ccccc2c3c1[C@H]4C[C@@H](C3)NC[C@@H]4O

> <OPENEYE_INCHI>
InChI=1S/C15H18N2O/c1-17-13-5-3-2-4-10(13)11-6-9-7-12(15(11)17)14(18)8-16-9/h2-5,9,12,14,16,18H,6-8H2,1H3/t9-,12+,14+/m1/s1

> <OPENEYE_INCHIKEY>
QCWXHFWRNWEAIH-LQJRIPTKSA-N

> <FORMULA>
C15H18N2O

$$$$
