@<TRIPOS>MOLECULE
/home/pku/3cl/gett_pdb/5S28/5S28_mol2/ligand/5S28_WRV.pdb
 16 16 0 0 0
SMALL
GASTEIGER

@<TRIPOS>ATOM
      1  N1        -7.9220   14.6280    4.3150 N.am  201  WRV201     -0.1860
      2  C4        -7.6570   15.0170    3.0520 C.2   201  WRV201      0.3435
      3  C5        -5.7260   14.7900    1.4280 C.ar  201  WRV201      0.0772
      4  C6        -6.3740   15.0340    0.2220 C.ar  201  WRV201      0.0459
      5  C7        -5.6170   15.1160   -0.9220 C.ar  201  WRV201      0.1374
      6  C8        -4.2530   14.9150   -0.9370 C.ar  201  WRV201      0.0057
      7  C10       -3.6220   14.6630    0.2740 C.ar  201  WRV201     -0.0007
      8  C1        -9.8690   13.8020    5.5110 C.3   201  WRV201      0.0263
      9  C2        -9.0960   15.0340    5.0810 C.3   201  WRV201      0.1299
     10  C3        -8.6280   15.8480    6.2600 C.3   201  WRV201      0.2036
     11  O1        -9.6990   16.4250    6.9850 O.3   201  WRV201     -0.2185
     12  N2        -6.3750   14.7140    2.6760 N.am  201  WRV201     -0.1609
     13  F1        -6.2600   15.3970   -2.0800 F     201  WRV201     -0.2045
     14  C9        -3.4490   14.9930   -2.1990 C.3   201  WRV201      0.0334
     15  C11       -4.3510   14.5930    1.4450 C.ar  201  WRV201      0.0165
     16  O2        -8.4920   15.5720    2.3270 O.2   201  WRV201     -0.2488
@<TRIPOS>BOND
     1    14     6    1
     2    13     5    1
     3     6     5   ar
     4     6     7   ar
     5     5     4   ar
     6     4     3   ar
     7     7    15   ar
     8     3    15   ar
     9     3    12    1
    10    16     2    2
    11    12     2   am
    12     2     1   am
    13     1     9    1
    14     9     8    1
    15     9    10    1
    16    10    11    1
