@<TRIPOS>MOLECULE
/home/pku/3cl/gett_pdb/7M01/7M01_mol2/ligand/7M01_YKV.pdb
 38 40 0 0 0
SMALL
GASTEIGER

@<TRIPOS>ATOM
      1  C11        8.5470   19.8130   27.9700 C.3   401  YKV401      0.1287
      2  C12        7.5310   19.7400   26.8050 C.3   401  YKV401      0.0335
      3  C13        7.1490   21.1160   26.2510 C.3   401  YKV401      0.0818
      4  C14        6.1910   20.9610   25.0510 C.2   401  YKV401      0.2410
      5  C16        5.2170   22.5970   26.4100 C.3   401  YKV401      0.1156
      6  C17        6.2640   21.8570   27.2770 C.3   401  YKV401      0.0326
      7  O22       10.3550   25.3950   26.3220 O.3   401  YKV401     -0.4370
      8  C23        9.2910   25.9710   25.5660 C.3   401  YKV401      0.1747
      9  C02       10.5980   24.0630   26.4150 C.2   401  YKV401      0.4214
     10  C04       11.6720   22.1350   27.6250 C.3   401  YKV401      0.1761
     11  C05       12.7920   21.9390   28.6150 C.3   401  YKV401      0.0312
     12  C06       14.1820   22.3590   28.1180 C.3   401  YKV401      0.0022
     13  C07       14.6120   21.5430   26.8940 C.3   401  YKV401      0.0001
     14  C08       15.2140   22.2030   29.2440 C.3   401  YKV401      0.0001
     15  C09       10.3480   21.5230   28.2120 C.2   401  YKV401      0.2614
     16  C19        8.8310   18.4130   28.5740 C.3   401  YKV401      0.2036
     17  C24        7.8640   25.6540   26.1820 C.3   401  YKV401      0.0700
     18  C25        7.5980   26.1430   27.6200 C.ar  401  YKV401     -0.0186
     19  C26        8.0310   25.4230   28.7640 C.ar  401  YKV401     -0.0041
     20  C27        7.7820   25.8970   30.0680 C.ar  401  YKV401     -0.0003
     21  C28        7.0990   27.1110   30.2540 C.ar  401  YKV401     -0.0000
     22  C29        6.6670   27.8370   29.1430 C.ar  401  YKV401     -0.0003
     23  C30        6.9200   27.3560   27.8500 C.ar  401  YKV401     -0.0041
     24  C31        9.5940   27.5300   25.4650 C.3   401  YKV401      0.0409
     25  C32        8.7440   28.2780   24.4030 C.3   401  YKV401      0.0092
     26  C33        8.9920   29.7820   24.4710 C.3   401  YKV401      0.0667
     27  C34       10.5060   30.1250   24.1940 C.3   401  YKV401      0.2639
     28  C37       11.4260   29.2930   25.1690 C.3   401  YKV401      0.0667
     29  C38       11.0900   27.8080   25.2030 C.3   401  YKV401      0.0092
     30  F35       10.7310   31.4130   24.3320 F     401  YKV401     -0.2043
     31  F36       10.7980   29.8790   22.9570 F     401  YKV401     -0.2043
     32  N03       11.4850   23.5710   27.3600 N.am  401  YKV401     -0.1611
     33  N10        9.7650   20.4580   27.5300 N.am  401  YKV401     -0.2030
     34  N15        5.1120   21.8220   25.1920 N.am  401  YKV401     -0.2054
     35  O01       10.0190   23.3180   25.6430 O.2   401  YKV401     -0.2246
     36  O18        6.3590   20.2050   24.1200 O.2   401  YKV401     -0.2734
     37  O20        7.6640   17.8570   29.0840 O.3   401  YKV401     -0.2185
     38  O21        9.8610   21.9730   29.2090 O.2   401  YKV401     -0.2715
@<TRIPOS>BOND
     1    31    27    1
     2    36     4    2
     3    27    30    1
     4    27    26    1
     5    27    28    1
     6    25    26    1
     7    25    24    1
     8     4    34   am
     9     4     3    1
    10    28    29    1
    11    34     5    1
    12    29    24    1
    13    24     8    1
    14     8    17    1
    15     8     7    1
    16    35     9    2
    17    17    18    1
    18     3     2    1
    19     3     6    1
    20     7     9    1
    21     5     6    1
    22     9    32   am
    23     2     1    1
    24    13    12    1
    25    32    10    1
    26    33     1    1
    27    33    15   am
    28    18    23   ar
    29    18    19   ar
    30    10    15    1
    31    10    11    1
    32    23    22   ar
    33     1    16    1
    34    12    11    1
    35    12    14    1
    36    15    38    2
    37    16    37    1
    38    19    20   ar
    39    22    21   ar
    40    20    21   ar
