V1B
  -OEChem-02242320043D

 43 47  0     0  0  0  0  0  0999 V2000
    2.8510    0.2800   -0.5670 C   0  0  0  0  0  0  0  0  0  0  0  0
   -2.9670   -1.6230   -1.2070 C   0  0  0  0  0  0  0  0  0  0  0  0
    4.3400    0.3730   -0.3530 C   0  0  0  0  0  0  0  0  0  0  0  0
    5.0930    1.2540   -1.1070 C   0  0  0  0  0  0  0  0  0  0  0  0
    2.0260    0.6180    0.6880 C   0  0  0  0  0  0  0  0  0  0  0  0
    6.4590    1.3390   -0.9110 C   0  0  0  0  0  0  0  0  0  0  0  0
    7.0720    0.5440    0.0400 C   0  0  0  0  0  0  0  0  0  0  0  0
    6.3190   -0.3360    0.7940 C   0  0  0  0  0  0  0  0  0  0  0  0
    4.9520   -0.4180    0.6010 C   0  0  0  0  0  0  0  0  0  0  0  0
   -0.0840   -0.1940   -0.5380 C   0  0  0  0  0  0  0  0  0  0  0  0
   -2.4580   -0.6830   -0.3530 C   0  0  0  0  0  0  0  0  0  0  0  0
    0.5810   -1.3420    1.4030 N   0  0  0  0  0  0  0  0  0  0  0  0
   -1.1340   -0.7640    0.0930 N   0  0  0  0  0  0  0  0  0  0  0  0
    2.3010   -1.1530   -0.4530 C   0  0  0  0  0  0  0  0  0  0  0  0
   -4.2160   -1.5630   -1.6460 N   0  0  0  0  0  0  0  0  0  0  0  0
   -1.5150   -2.0100    1.9330 O   0  0  0  0  0  0  0  0  0  0  0  0
   -0.7500   -1.4160    1.1980 C   0  0  0  0  0  0  0  0  0  0  0  0
    1.1180   -0.5470    0.2990 C   0  0  0  0  0  0  0  0  0  0  0  0
   -0.1050    0.4600   -1.5580 O   0  0  0  0  0  0  0  0  0  0  0  0
   -5.0480   -0.6100   -1.3000 C   0  0  0  0  0  0  0  0  0  0  0  0
   -4.6280    0.4070   -0.4260 C   0  0  0  0  0  0  0  0  0  0  0  0
   -5.4820    1.4470   -0.0290 C   0  0  0  0  0  0  0  0  0  0  0  0
   -5.0200    2.4070    0.8210 C   0  0  0  0  0  0  0  0  0  0  0  0
   -3.7130    2.3730    1.3010 C   0  0  0  0  0  0  0  0  0  0  0  0
   -2.8560    1.3780    0.9360 C   0  0  0  0  0  0  0  0  0  0  0  0
   -3.2990    0.3710    0.0690 C   0  0  0  0  0  0  0  0  0  0  0  0
    2.5190    0.8070   -1.4620 H   0  0  0  0  0  0  0  0  0  0  0  0
   -2.3330   -2.4330   -1.5350 H   0  0  0  0  0  0  0  0  0  0  0  0
    4.6150    1.8750   -1.8500 H   0  0  0  0  0  0  0  0  0  0  0  0
    2.5660    0.4590    1.6220 H   0  0  0  0  0  0  0  0  0  0  0  0
    1.5370    1.5910    0.6420 H   0  0  0  0  0  0  0  0  0  0  0  0
    7.0470    2.0270   -1.5000 H   0  0  0  0  0  0  0  0  0  0  0  0
    8.1390    0.6100    0.1930 H   0  0  0  0  0  0  0  0  0  0  0  0
    6.7970   -0.9570    1.5360 H   0  0  0  0  0  0  0  0  0  0  0  0
    4.3630   -1.1030    1.1930 H   0  0  0  0  0  0  0  0  0  0  0  0
    1.0810   -1.7350    2.1350 H   0  0  0  0  0  0  0  0  0  0  0  0
    2.0300   -1.5950   -1.4120 H   0  0  0  0  0  0  0  0  0  0  0  0
    2.9180   -1.8110    0.1590 H   0  0  0  0  0  0  0  0  0  0  0  0
   -6.0560   -0.6060   -1.6870 H   0  0  0  0  0  0  0  0  0  0  0  0
   -6.4980    1.4870   -0.3930 H   0  0  0  0  0  0  0  0  0  0  0  0
   -5.6780    3.2070    1.1260 H   0  0  0  0  0  0  0  0  0  0  0  0
   -3.3730    3.1470    1.9730 H   0  0  0  0  0  0  0  0  0  0  0  0
   -1.8450    1.3630    1.3150 H   0  0  0  0  0  0  0  0  0  0  0  0
 15 20  2  0  0  0  0
  2 15  1  0  0  0  0
 20 21  1  0  0  0  0
  2 11  2  0  0  0  0
 21 22  2  0  0  0  0
 21 26  1  0  0  0  0
 22 23  1  0  0  0  0
 11 26  1  0  0  0  0
 11 13  1  0  0  0  0
 25 26  2  0  0  0  0
 23 24  2  0  0  0  0
 10 19  2  0  0  0  0
 10 13  1  0  0  0  0
 13 17  1  0  0  0  0
 10 18  1  0  0  0  0
 24 25  1  0  0  0  0
 16 17  2  0  0  0  0
 12 17  1  0  0  0  0
 14 18  1  0  0  0  0
  1 14  1  0  0  0  0
 12 18  1  0  0  0  0
  5 18  1  0  0  0  0
  1  5  1  0  0  0  0
  1  3  1  0  0  0  0
  3  4  2  0  0  0  0
  3  9  1  0  0  0  0
  4  6  1  0  0  0  0
  8  9  2  0  0  0  0
  6  7  2  0  0  0  0
  7  8  1  0  0  0  0
  1 27  1  0  0  0  0
  2 28  1  0  0  0  0
  4 29  1  0  0  0  0
  5 30  1  0  0  0  0
  5 31  1  0  0  0  0
  6 32  1  0  0  0  0
  7 33  1  0  0  0  0
  8 34  1  0  0  0  0
  9 35  1  0  0  0  0
 12 36  1  0  0  0  0
 14 37  1  0  0  0  0
 14 38  1  0  0  0  0
 20 39  1  0  0  0  0
 22 40  1  0  0  0  0
 23 41  1  0  0  0  0
 24 42  1  0  0  0  0
 25 43  1  0  0  0  0
M  END
> <OPENEYE_ISO_SMILES>
c1ccc(cc1)C2CC3(C2)C(=O)N(C(=O)N3)c4cncc5c4cccc5

> <OPENEYE_INCHI>
InChI=1S/C21H17N3O2/c25-19-21(10-16(11-21)14-6-2-1-3-7-14)23-20(26)24(19)18-13-22-12-15-8-4-5-9-17(15)18/h1-9,12-13,16H,10-11H2,(H,23,26)/t16-,21+

> <OPENEYE_INCHIKEY>
BWBPGOKJGLWQEA-NBEIKUQISA-N

> <FORMULA>
C21H17N3O2

$$$$
