RTI
  -OEChem-02242320043D

 41 44  0     1  0  0  0  0  0999 V2000
   -4.6300    0.7290   -0.7750 C   0  0  0  0  0  0  0  0  0  0  0  0
   -3.3880   -0.3000    1.0380 C   0  0  0  0  0  0  0  0  0  0  0  0
   -4.6060    0.0330    0.4500 C   0  0  0  0  0  0  0  0  0  0  0  0
   -2.2030    0.0610    0.4040 C   0  0  0  0  0  0  0  0  0  0  0  0
   -0.9040   -0.2860    1.0150 C   0  0  0  0  0  0  0  0  0  0  0  0
    1.5320   -0.2810    1.0090 C   0  0  2  0  0  0  0  0  0  0  0  0
    2.5980    0.7000    0.5710 C   0  0  0  0  0  0  0  0  0  0  0  0
    2.5590    2.0810    0.4670 C   0  0  0  0  0  0  0  0  0  0  0  0
   -6.7570    0.3690   -0.1460 C   0  0  0  0  0  0  0  0  0  0  0  0
    1.4530   -1.9490   -0.8670 C   0  0  0  0  0  0  0  0  0  0  0  0
    2.0130   -1.6570    0.5010 C   0  0  1  0  0  0  0  0  0  0  0  0
    3.5440   -1.4710    0.4390 C   0  0  0  0  0  0  0  0  0  0  0  0
    3.7540    0.0180    0.2430 C   0  0  0  0  0  0  0  0  0  0  0  0
    4.8720    0.7200   -0.1910 C   0  0  0  0  0  0  0  0  0  0  0  0
    4.8280    2.1020   -0.2940 C   0  0  0  0  0  0  0  0  0  0  0  0
    3.6700    2.7800    0.0370 C   0  0  0  0  0  0  0  0  0  0  0  0
   -6.0070   -0.1810    0.8220 C   0  0  0  0  0  0  0  0  0  0  0  0
   -3.4310    1.0860   -1.3890 C   0  0  0  0  0  0  0  0  0  0  0  0
   -2.2400    0.7580   -0.8120 C   0  0  0  0  0  0  0  0  0  0  0  0
    0.2440    0.0630    0.4020 N   0  0  0  0  0  0  0  0  0  0  0  0
   -5.9500    0.9160   -1.1070 N   0  0  0  0  0  0  0  0  0  0  0  0
    2.0250   -1.5470   -1.8520 O   0  0  0  0  0  0  0  0  0  0  0  0
    6.0090    0.0510   -0.5170 O   0  0  0  0  0  0  0  0  0  0  0  0
   -0.8710   -0.8870    2.0720 O   0  0  0  0  0  0  0  0  0  0  0  0
    0.3180   -2.6550   -0.9910 O   0  0  0  0  0  0  0  0  0  0  0  0
   -3.3640   -0.8340    1.9760 H   0  0  0  0  0  0  0  0  0  0  0  0
    1.4480   -0.2880    2.0960 H   0  0  0  0  0  0  0  0  0  0  0  0
    1.6550    2.6130    0.7230 H   0  0  0  0  0  0  0  0  0  0  0  0
   -7.8360    0.3780   -0.1640 H   0  0  0  0  0  0  0  0  0  0  0  0
    1.7440   -2.4460    1.2040 H   0  0  0  0  0  0  0  0  0  0  0  0
    4.0030   -1.7970    1.3720 H   0  0  0  0  0  0  0  0  0  0  0  0
    3.9590   -2.0280   -0.4010 H   0  0  0  0  0  0  0  0  0  0  0  0
    5.6980    2.6470   -0.6320 H   0  0  0  0  0  0  0  0  0  0  0  0
    3.6330    3.8570   -0.0420 H   0  0  0  0  0  0  0  0  0  0  0  0
   -6.3680   -0.6840    1.7070 H   0  0  0  0  0  0  0  0  0  0  0  0
   -3.4450    1.6230   -2.3260 H   0  0  0  0  0  0  0  0  0  0  0  0
   -1.3170    1.0350   -1.2980 H   0  0  0  0  0  0  0  0  0  0  0  0
    0.2180    0.5420   -0.4400 H   0  0  0  0  0  0  0  0  0  0  0  0
   -6.2640    1.3700   -1.9050 H   0  0  0  0  0  0  0  0  0  0  0  0
    6.6190   -0.0710    0.2240 H   0  0  0  0  0  0  0  0  0  0  0  0
   -0.0030   -2.8160   -1.8890 H   0  0  0  0  0  0  0  0  0  0  0  0
 14 23  1  0  0  0  0
 14 15  2  0  0  0  0
 13 14  1  0  0  0  0
 15 16  1  0  0  0  0
 12 13  1  0  0  0  0
  7 13  2  0  0  0  0
  8 16  2  0  0  0  0
 11 12  1  0  0  0  0
  7  8  1  0  0  0  0
  6  7  1  0  0  0  0
  6 11  1  0  0  0  0
 10 11  1  0  0  0  0
  6 20  1  0  0  0  0
  5 24  2  0  0  0  0
  5 20  1  0  0  0  0
  4  5  1  0  0  0  0
 10 22  2  0  0  0  0
 10 25  1  0  0  0  0
  2  4  2  0  0  0  0
  4 19  1  0  0  0  0
  2  3  1  0  0  0  0
 18 19  2  0  0  0  0
  3 17  1  0  0  0  0
  1  3  2  0  0  0  0
  9 17  2  0  0  0  0
  1 18  1  0  0  0  0
  1 21  1  0  0  0  0
  9 21  1  0  0  0  0
  2 26  1  0  0  0  0
  6 27  1  0  0  0  0
  8 28  1  0  0  0  0
  9 29  1  0  0  0  0
 11 30  1  0  0  0  0
 12 31  1  0  0  0  0
 12 32  1  0  0  0  0
 15 33  1  0  0  0  0
 16 34  1  0  0  0  0
 17 35  1  0  0  0  0
 18 36  1  0  0  0  0
 19 37  1  0  0  0  0
 20 38  1  0  0  0  0
 21 39  1  0  0  0  0
 23 40  1  0  0  0  0
 25 41  1  0  0  0  0
M  END
> <OPENEYE_ISO_SMILES>
c1cc2c(c(c1)O)C[C@@H]([C@@H]2NC(=O)c3ccc4c(c3)cc[nH]4)C(=O)O

> <OPENEYE_INCHI>
InChI=1S/C19H16N2O4/c22-16-3-1-2-12-13(16)9-14(19(24)25)17(12)21-18(23)11-4-5-15-10(8-11)6-7-20-15/h1-8,14,17,20,22H,9H2,(H,21,23)(H,24,25)/t14-,17+/m0/s1

> <OPENEYE_INCHIKEY>
DEQJMLORKTWBPR-WMLDXEAASA-N

> <FORMULA>
C19H16N2O4

$$$$
