RTU
  -OEChem-02242320043D

 41 44  0     1  0  0  0  0  0999 V2000
    1.9280   -2.3990    0.0930 C   0  0  0  0  0  0  0  0  0  0  0  0
    2.3880   -1.5480   -1.0630 C   0  0  2  0  0  0  0  0  0  0  0  0
    3.8140   -1.0120   -0.8170 C   0  0  0  0  0  0  0  0  0  0  0  0
    3.6220    0.3310   -0.1450 C   0  0  0  0  0  0  0  0  0  0  0  0
    4.5150    1.1110    0.5800 C   0  0  0  0  0  0  0  0  0  0  0  0
    4.1060    2.3250    1.1090 C   0  0  0  0  0  0  0  0  0  0  0  0
    2.8090    2.7590    0.9140 C   0  0  0  0  0  0  0  0  0  0  0  0
    1.9220    1.9830    0.1930 C   0  0  0  0  0  0  0  0  0  0  0  0
    2.3260    0.7690   -0.3370 C   0  0  0  0  0  0  0  0  0  0  0  0
    1.5570   -0.2500   -1.1520 C   0  0  2  0  0  0  0  0  0  0  0  0
   -0.8060    0.3160   -0.9690 C   0  0  0  0  0  0  0  0  0  0  0  0
   -2.1480    0.1050   -0.3910 C   0  0  0  0  0  0  0  0  0  0  0  0
   -3.2130    0.9050   -0.7950 C   0  0  0  0  0  0  0  0  0  0  0  0
   -4.4730    0.6950   -0.2420 C   0  0  0  0  0  0  0  0  0  0  0  0
   -4.6620   -0.3190    0.7170 C   0  0  0  0  0  0  0  0  0  0  0  0
   -6.6400    0.6930    0.3890 C   0  0  0  0  0  0  0  0  0  0  0  0
   -5.7830    1.3270   -0.4250 C   0  0  0  0  0  0  0  0  0  0  0  0
   -3.5820   -1.1090    1.1080 C   0  0  0  0  0  0  0  0  0  0  0  0
   -2.3500   -0.9050    0.5610 C   0  0  0  0  0  0  0  0  0  0  0  0
    0.2260   -0.4590   -0.5780 N   0  0  0  0  0  0  0  0  0  0  0  0
   -5.9880   -0.2920    1.0790 N   0  0  0  0  0  0  0  0  0  0  0  0
    1.1320   -3.4570   -0.1280 O   0  0  0  0  0  0  0  0  0  0  0  0
    5.7900    0.6830    0.7710 O   0  0  0  0  0  0  0  0  0  0  0  0
   -0.6310    1.1880   -1.7980 O   0  0  0  0  0  0  0  0  0  0  0  0
    2.2810   -2.1330    1.2170 O   0  0  0  0  0  0  0  0  0  0  0  0
    2.3390   -2.1070   -1.9970 H   0  0  0  0  0  0  0  0  0  0  0  0
    4.3640   -1.6880   -0.1610 H   0  0  0  0  0  0  0  0  0  0  0  0
    4.3410   -0.8910   -1.7630 H   0  0  0  0  0  0  0  0  0  0  0  0
    4.8000    2.9310    1.6730 H   0  0  0  0  0  0  0  0  0  0  0  0
    2.4880    3.7040    1.3260 H   0  0  0  0  0  0  0  0  0  0  0  0
    0.9090    2.3240    0.0430 H   0  0  0  0  0  0  0  0  0  0  0  0
    1.4760    0.0780   -2.1880 H   0  0  0  0  0  0  0  0  0  0  0  0
   -3.0620    1.6810   -1.5300 H   0  0  0  0  0  0  0  0  0  0  0  0
   -7.6900    0.9270    0.4870 H   0  0  0  0  0  0  0  0  0  0  0  0
   -6.0140    2.1480   -1.0890 H   0  0  0  0  0  0  0  0  0  0  0  0
   -3.7220   -1.8870    1.8430 H   0  0  0  0  0  0  0  0  0  0  0  0
   -1.5200   -1.5250    0.8670 H   0  0  0  0  0  0  0  0  0  0  0  0
    0.0860   -1.1550    0.0830 H   0  0  0  0  0  0  0  0  0  0  0  0
   -6.4000   -0.8850    1.7260 H   0  0  0  0  0  0  0  0  0  0  0  0
    0.8630   -3.9730    0.6440 H   0  0  0  0  0  0  0  0  0  0  0  0
    6.4070    0.9660    0.0820 H   0  0  0  0  0  0  0  0  0  0  0  0
  6  7  2  0  0  0  0
  7  8  1  0  0  0  0
  5  6  1  0  0  0  0
  8  9  2  0  0  0  0
  5 23  1  0  0  0  0
  4  5  2  0  0  0  0
  4  9  1  0  0  0  0
  9 10  1  0  0  0  0
  3  4  1  0  0  0  0
  2 10  1  0  0  0  0
 10 20  1  0  0  0  0
  2  3  1  0  0  0  0
  1  2  1  0  0  0  0
 11 24  2  0  0  0  0
 11 20  1  0  0  0  0
  1 25  2  0  0  0  0
 11 12  1  0  0  0  0
  1 22  1  0  0  0  0
 12 13  2  0  0  0  0
 12 19  1  0  0  0  0
 13 14  1  0  0  0  0
 18 19  2  0  0  0  0
 14 17  1  0  0  0  0
 14 15  2  0  0  0  0
 16 17  2  0  0  0  0
 15 18  1  0  0  0  0
 15 21  1  0  0  0  0
 16 21  1  0  0  0  0
  2 26  1  0  0  0  0
  3 27  1  0  0  0  0
  3 28  1  0  0  0  0
  6 29  1  0  0  0  0
  7 30  1  0  0  0  0
  8 31  1  0  0  0  0
 10 32  1  0  0  0  0
 13 33  1  0  0  0  0
 16 34  1  0  0  0  0
 17 35  1  0  0  0  0
 18 36  1  0  0  0  0
 19 37  1  0  0  0  0
 20 38  1  0  0  0  0
 21 39  1  0  0  0  0
 22 40  1  0  0  0  0
 23 41  1  0  0  0  0
M  END
> <OPENEYE_ISO_SMILES>
c1cc2c(c(c1)O)C[C@H]([C@H]2NC(=O)c3ccc4c(c3)cc[nH]4)C(=O)O

> <OPENEYE_INCHI>
InChI=1S/C19H16N2O4/c22-16-3-1-2-12-13(16)9-14(19(24)25)17(12)21-18(23)11-4-5-15-10(8-11)6-7-20-15/h1-8,14,17,20,22H,9H2,(H,21,23)(H,24,25)/t14-,17+/m1/s1

> <OPENEYE_INCHIKEY>
DEQJMLORKTWBPR-PBHICJAKSA-N

> <FORMULA>
C19H16N2O4

$$$$
