FN2
  -OEChem-02242320023D

 82 85  0     1  0  0  0  0  0999 V2000
    4.9910    2.7000    0.7880 C   0  0  0  0  0  0  0  0  0  0  0  0
    6.0460    2.8840   -0.2800 C   0  0  2  0  0  0  0  0  0  0  0  0
    6.6230    1.5310   -0.7010 C   0  0  0  0  0  0  0  0  0  0  0  0
    5.5380    0.7110   -1.4030 C   0  0  1  0  0  0  0  0  0  0  0  0
    6.9020    3.4140    1.8970 C   0  0  0  0  0  0  0  0  0  0  0  0
    7.1330    3.7450    0.4060 C   0  0  0  0  0  0  0  0  0  0  0  0
    6.1590   -0.5560   -1.9950 C   0  0  1  0  0  0  0  0  0  0  0  0
   -2.6340   -0.4280    0.2110 C   0  0  0  0  0  0  0  0  0  0  0  0
   -3.8320    0.0330   -0.6390 C   0  0  0  0  0  0  0  0  0  0  0  0
   -4.6760   -0.9430    0.1800 C   0  0  0  0  0  0  0  0  0  0  0  0
   -5.9200   -1.6080   -0.4120 C   0  0  0  0  0  0  0  0  0  0  0  0
   -7.9200   -0.0830    0.2670 C   0  0  0  0  0  0  0  0  0  0  0  0
   -0.2500   -0.3890    0.0900 C   0  0  0  0  0  0  0  0  0  0  0  0
    2.1840   -0.3020    0.1400 C   0  0  1  0  0  0  0  0  0  0  0  0
    2.6030   -1.5790    0.8720 C   0  0  0  0  0  0  0  0  0  0  0  0
    1.5830   -1.8960    1.9680 C   0  0  0  0  0  0  0  0  0  0  0  0
    1.9330   -3.2370    2.6170 C   0  0  0  0  0  0  0  0  0  0  0  0
    1.6140   -0.7930    3.0280 C   0  0  0  0  0  0  0  0  0  0  0  0
    3.2490    0.0790   -0.8560 C   0  0  0  0  0  0  0  0  0  0  0  0
   -5.5680   -0.4560    1.3240 C   0  0  0  0  0  0  0  0  0  0  0  0
   -3.4020   -1.7410    0.4520 C   0  0  0  0  0  0  0  0  0  0  0  0
    0.9200   -0.5340   -0.5630 N   0  0  0  0  0  0  0  0  0  0  0  0
    4.5030    0.3410   -0.4350 N   0  0  0  0  0  0  0  0  0  0  0  0
    5.4950    3.0090    1.9950 N   0  0  0  0  0  0  0  0  0  0  0  0
   -6.6880   -0.6200    0.3740 N   0  0  0  0  0  0  0  0  0  0  0  0
   -0.2570   -0.0660    1.2620 O   0  0  0  0  0  0  0  0  0  0  0  0
    3.8530    2.3320    0.5840 O   0  0  0  0  0  0  0  0  0  0  0  0
    7.2470   -0.1990   -2.8490 O   0  0  0  0  0  0  0  0  0  0  0  0
    2.9790    0.1490   -2.0360 O   0  0  0  0  0  0  0  0  0  0  0  0
   -1.4130   -0.6030   -0.5550 O   0  0  0  0  0  0  0  0  0  0  0  0
    6.7670   -1.6150   -0.6530 S   0  0  0  0  0  0  0  0  0  0  0  0
    5.6300    3.4050   -1.1410 H   0  0  0  0  0  0  0  0  0  0  0  0
    7.4580    1.6880   -1.3840 H   0  0  0  0  0  0  0  0  0  0  0  0
    6.9710    0.9930    0.1810 H   0  0  0  0  0  0  0  0  0  0  0  0
    5.0940    1.3040   -2.2020 H   0  0  0  0  0  0  0  0  0  0  0  0
    7.5530    2.5970    2.2070 H   0  0  0  0  0  0  0  0  0  0  0  0
    7.0860    4.2960    2.5110 H   0  0  0  0  0  0  0  0  0  0  0  0
    8.1300    3.4400    0.0880 H   0  0  0  0  0  0  0  0  0  0  0  0
    6.9700    4.8050    0.2110 H   0  0  0  0  0  0  0  0  0  0  0  0
    5.4070   -1.0950   -2.5700 H   0  0  0  0  0  0  0  0  0  0  0  0
   -2.4860    0.1640    1.1130 H   0  0  0  0  0  0  0  0  0  0  0  0
   -4.1000    1.0780   -0.4860 H   0  0  0  0  0  0  0  0  0  0  0  0
   -3.7520   -0.2360   -1.6920 H   0  0  0  0  0  0  0  0  0  0  0  0
   -6.0160   -1.4830   -1.4900 H   0  0  0  0  0  0  0  0  0  0  0  0
   -6.0640   -2.6390   -0.0880 H   0  0  0  0  0  0  0  0  0  0  0  0
    2.0560    0.5050    0.8610 H   0  0  0  0  0  0  0  0  0  0  0  0
    2.6450   -2.4060    0.1640 H   0  0  0  0  0  0  0  0  0  0  0  0
    3.5860   -1.4340    1.3210 H   0  0  0  0  0  0  0  0  0  0  0  0
    0.5860   -1.9520    1.5310 H   0  0  0  0  0  0  0  0  0  0  0  0
    2.9300   -3.1800    3.0530 H   0  0  0  0  0  0  0  0  0  0  0  0
    1.2070   -3.4620    3.3980 H   0  0  0  0  0  0  0  0  0  0  0  0
    1.9110   -4.0220    1.8620 H   0  0  0  0  0  0  0  0  0  0  0  0
    2.6110   -0.7360    3.4640 H   0  0  0  0  0  0  0  0  0  0  0  0
    1.3650    0.1620    2.5650 H   0  0  0  0  0  0  0  0  0  0  0  0
    0.8880   -1.0190    3.8080 H   0  0  0  0  0  0  0  0  0  0  0  0
   -5.6070   -1.1380    2.1730 H   0  0  0  0  0  0  0  0  0  0  0  0
   -5.3850    0.5790    1.6150 H   0  0  0  0  0  0  0  0  0  0  0  0
   -3.2000   -2.5100   -0.2940 H   0  0  0  0  0  0  0  0  0  0  0  0
   -3.3270   -2.1100    1.4740 H   0  0  0  0  0  0  0  0  0  0  0  0
    0.9250   -0.7930   -1.4980 H   0  0  0  0  0  0  0  0  0  0  0  0
    4.7190    0.2850    0.5090 H   0  0  0  0  0  0  0  0  0  0  0  0
    4.9940    2.9690    2.8250 H   0  0  0  0  0  0  0  0  0  0  0  0
    6.9950    0.3680   -3.5910 H   0  0  0  0  0  0  0  0  0  0  0  0
    7.6800   -0.9030    0.1700 O   0  0  0  0  0  0  0  0  0  0  0  0
    5.5520   -1.8340    0.2380 O   0  0  0  0  0  0  0  0  0  0  0  0
    7.0800   -2.9110   -1.1430 O   0  0  0  0  0  0  0  0  0  0  0  0
    5.7250   -2.3910    1.0090 H   0  0  0  0  0  0  0  0  0  0  0  0
   -8.8260   -0.4940   -0.8640 C   0  0  0  0  0  0  0  0  0  0  0  0
  -10.1340    0.2470   -0.7560 C   0  0  0  0  0  0  0  0  0  0  0  0
  -10.2890    1.4690   -1.3820 C   0  0  0  0  0  0  0  0  0  0  0  0
  -11.4890    2.1490   -1.2830 C   0  0  0  0  0  0  0  0  0  0  0  0
  -12.5330    1.6060   -0.5570 C   0  0  0  0  0  0  0  0  0  0  0  0
  -12.3770    0.3840    0.0690 C   0  0  0  0  0  0  0  0  0  0  0  0
  -11.1790   -0.2980   -0.0340 C   0  0  0  0  0  0  0  0  0  0  0  0
   -8.3510   -0.2550   -1.8160 H   0  0  0  0  0  0  0  0  0  0  0  0
   -9.0110   -1.5670   -0.8100 H   0  0  0  0  0  0  0  0  0  0  0  0
   -9.4740    1.8930   -1.9490 H   0  0  0  0  0  0  0  0  0  0  0  0
  -11.6110    3.1040   -1.7710 H   0  0  0  0  0  0  0  0  0  0  0  0
  -13.4700    2.1380   -0.4790 H   0  0  0  0  0  0  0  0  0  0  0  0
  -13.1930   -0.0400    0.6360 H   0  0  0  0  0  0  0  0  0  0  0  0
  -11.0580   -1.2530    0.4540 H   0  0  0  0  0  0  0  0  0  0  0  0
   -8.2990    0.7320    1.0820 O   0  0  0  0  0  0  0  0  0  0  0  0
  1 27  2  0  0  0  0
 10 20  1  0  0  0  0
 20 25  1  0  0  0  0
  8 21  1  0  0  0  0
 10 21  1  0  0  0  0
  8  9  1  0  0  0  0
  8 30  1  0  0  0  0
  1 24  1  0  0  0  0
  1  2  1  0  0  0  0
  9 10  1  0  0  0  0
 10 11  1  0  0  0  0
  5 24  1  0  0  0  0
 13 26  2  0  0  0  0
 12 25  1  0  0  0  0
 11 25  1  0  0  0  0
  2  3  1  0  0  0  0
  2  6  1  0  0  0  0
 13 30  1  0  0  0  0
 13 22  1  0  0  0  0
  5  6  1  0  0  0  0
  3  4  1  0  0  0  0
 16 17  1  0  0  0  0
 14 22  1  0  0  0  0
  7 31  1  0  0  0  0
  4 23  1  0  0  0  0
 19 23  1  0  0  0  0
 14 19  1  0  0  0  0
 14 15  1  0  0  0  0
  4  7  1  0  0  0  0
 15 16  1  0  0  0  0
 16 18  1  0  0  0  0
 19 29  2  0  0  0  0
  7 28  1  0  0  0  0
  2 32  1  0  0  0  0
  3 33  1  0  0  0  0
  3 34  1  0  0  0  0
  4 35  1  0  0  0  0
  5 36  1  0  0  0  0
  5 37  1  0  0  0  0
  6 38  1  0  0  0  0
  6 39  1  0  0  0  0
  7 40  1  0  0  0  0
  8 41  1  0  0  0  0
  9 42  1  0  0  0  0
  9 43  1  0  0  0  0
 11 44  1  0  0  0  0
 11 45  1  0  0  0  0
 14 46  1  0  0  0  0
 15 47  1  0  0  0  0
 15 48  1  0  0  0  0
 16 49  1  0  0  0  0
 17 50  1  0  0  0  0
 17 51  1  0  0  0  0
 17 52  1  0  0  0  0
 18 53  1  0  0  0  0
 18 54  1  0  0  0  0
 18 55  1  0  0  0  0
 20 56  1  0  0  0  0
 20 57  1  0  0  0  0
 21 58  1  0  0  0  0
 21 59  1  0  0  0  0
 22 60  1  0  0  0  0
 23 61  1  0  0  0  0
 24 62  1  0  0  0  0
 28 63  1  0  0  0  0
 31 64  2  0  0  0  0
 31 65  1  0  0  0  0
 31 66  2  0  0  0  0
 65 67  1  0  0  0  0
 12 68  1  0  0  0  0
 68 69  1  0  0  0  0
 69 70  1  0  0  0  0
 70 71  2  0  0  0  0
 71 72  1  0  0  0  0
 72 73  2  0  0  0  0
 73 74  1  0  0  0  0
 69 74  2  0  0  0  0
 68 75  1  0  0  0  0
 68 76  1  0  0  0  0
 70 77  1  0  0  0  0
 71 78  1  0  0  0  0
 72 79  1  0  0  0  0
 73 80  1  0  0  0  0
 74 81  1  0  0  0  0
 12 82  2  0  0  0  0
M  END
> <OPENEYE_ISO_SMILES>
CC(C)C[C@@H](C(=O)N[C@@H](C[C@@H]1CCNC1=O)[C@@H](O)S(=O)(=O)O)NC(=O)OC2CC3(C2)CN(C3)C(=O)Cc4ccccc4

> <OPENEYE_INCHI>
InChI=1S/C28H40N4O9S/c1-17(2)10-21(25(35)30-22(26(36)42(38,39)40)12-19-8-9-29-24(19)34)31-27(37)41-20-13-28(14-20)15-32(16-28)23(33)11-18-6-4-3-5-7-18/h3-7,17,19-22,26,36H,8-16H2,1-2H3,(H,29,34)(H,30,35)(H,31,37)(H,38,39,40)/t19-,21-,22-,26-/m0/s1

> <OPENEYE_INCHIKEY>
BUKWXURASAKBCJ-IFXCNKOCSA-N

> <FORMULA>
C28H40N4O9S

$$$$
