FP8
  -OEChem-02242320023D

 82 85  0     1  0  0  0  0  0999 V2000
    4.8830   -1.6390    2.1520 C   0  0  0  0  0  0  0  0  0  0  0  0
    5.9930   -0.6410    2.4040 C   0  0  2  0  0  0  0  0  0  0  0  0
    6.5790   -0.1480    1.0790 C   0  0  0  0  0  0  0  0  0  0  0  0
    5.5250    0.6660    0.3260 C   0  0  1  0  0  0  0  0  0  0  0  0
    6.7420   -2.8910    2.7610 C   0  0  0  0  0  0  0  0  0  0  0  0
    7.0500   -1.4420    3.1990 C   0  0  0  0  0  0  0  0  0  0  0  0
    6.1640    1.3140   -0.9040 C   0  0  2  0  0  0  0  0  0  0  0  0
   -2.7530   -0.3890   -0.5640 C   0  0  0  0  0  0  0  0  0  0  0  0
   -3.8720    0.5410   -0.0600 C   0  0  0  0  0  0  0  0  0  0  0  0
   -4.8090   -0.2240   -0.9930 C   0  0  0  0  0  0  0  0  0  0  0  0
   -6.0370    0.4460   -1.6100 C   0  0  0  0  0  0  0  0  0  0  0  0
   -8.0120   -0.0900    0.0020 C   0  0  0  0  0  0  0  0  0  0  0  0
   -0.3670   -0.4280   -0.6250 C   0  0  0  0  0  0  0  0  0  0  0  0
    2.0600   -0.6400   -0.6390 C   0  0  1  0  0  0  0  0  0  0  0  0
    2.3750   -1.4050   -1.9260 C   0  0  0  0  0  0  0  0  0  0  0  0
    1.2720   -2.4310   -2.1920 C   0  0  0  0  0  0  0  0  0  0  0  0
    1.5210   -3.1090   -3.5410 C   0  0  0  0  0  0  0  0  0  0  0  0
    1.2790   -3.4850   -1.0830 C   0  0  0  0  0  0  0  0  0  0  0  0
    3.2040    0.2840   -0.3110 C   0  0  0  0  0  0  0  0  0  0  0  0
   -5.7530   -1.3030   -0.4610 C   0  0  0  0  0  0  0  0  0  0  0  0
   -3.5900   -0.5840   -1.8410 C   0  0  0  0  0  0  0  0  0  0  0  0
    0.8360    0.1450   -0.8240 N   0  0  0  0  0  0  0  0  0  0  0  0
    4.4370   -0.2180   -0.0980 N   0  0  0  0  0  0  0  0  0  0  0  0
    5.3290   -2.8890    2.3650 N   0  0  0  0  0  0  0  0  0  0  0  0
   -6.8140   -0.2810   -0.5850 N   0  0  0  0  0  0  0  0  0  0  0  0
   -0.4380   -1.5940   -0.2930 O   0  0  0  0  0  0  0  0  0  0  0  0
    3.7550   -1.3520    1.8140 O   0  0  0  0  0  0  0  0  0  0  0  0
    6.8140    0.3110   -1.6870 O   0  0  0  0  0  0  0  0  0  0  0  0
    3.0160    1.4800   -0.2390 O   0  0  0  0  0  0  0  0  0  0  0  0
   -1.4920    0.2930   -0.7950 O   0  0  0  0  0  0  0  0  0  0  0  0
    7.3810    2.5490   -0.3720 S   0  0  0  0  0  0  0  0  0  0  0  0
    5.6240    0.1980    2.9930 H   0  0  0  0  0  0  0  0  0  0  0  0
    7.4490    0.4790    1.2780 H   0  0  0  0  0  0  0  0  0  0  0  0
    6.8790   -1.0030    0.4740 H   0  0  0  0  0  0  0  0  0  0  0  0
    5.1290    1.4410    0.9810 H   0  0  0  0  0  0  0  0  0  0  0  0
    7.3700   -3.1710    1.9150 H   0  0  0  0  0  0  0  0  0  0  0  0
    6.9010   -3.5780    3.5920 H   0  0  0  0  0  0  0  0  0  0  0  0
    8.0590   -1.1520    2.9070 H   0  0  0  0  0  0  0  0  0  0  0  0
    6.9050   -1.3200    4.2720 H   0  0  0  0  0  0  0  0  0  0  0  0
    5.3920    1.7990   -1.5010 H   0  0  0  0  0  0  0  0  0  0  0  0
   -2.6410   -1.2970    0.0270 H   0  0  0  0  0  0  0  0  0  0  0  0
   -4.1050    0.4120    0.9970 H   0  0  0  0  0  0  0  0  0  0  0  0
   -3.7320    1.5860   -0.3380 H   0  0  0  0  0  0  0  0  0  0  0  0
   -6.0550    1.5290   -1.4900 H   0  0  0  0  0  0  0  0  0  0  0  0
   -6.2460    0.1280   -2.6320 H   0  0  0  0  0  0  0  0  0  0  0  0
    1.9180   -1.3470    0.1780 H   0  0  0  0  0  0  0  0  0  0  0  0
    2.4290   -0.7050   -2.7600 H   0  0  0  0  0  0  0  0  0  0  0  0
    3.3310   -1.9180   -1.8190 H   0  0  0  0  0  0  0  0  0  0  0  0
    0.3050   -1.9290   -2.2110 H   0  0  0  0  0  0  0  0  0  0  0  0
    2.4880   -3.6110   -3.5230 H   0  0  0  0  0  0  0  0  0  0  0  0
    0.7350   -3.8410   -3.7300 H   0  0  0  0  0  0  0  0  0  0  0  0
    1.5160   -2.3580   -4.3310 H   0  0  0  0  0  0  0  0  0  0  0  0
    2.2460   -3.9880   -1.0650 H   0  0  0  0  0  0  0  0  0  0  0  0
    1.1020   -3.0030   -0.1220 H   0  0  0  0  0  0  0  0  0  0  0  0
    0.4930   -4.2170   -1.2730 H   0  0  0  0  0  0  0  0  0  0  0  0
   -5.8780   -2.1510   -1.1340 H   0  0  0  0  0  0  0  0  0  0  0  0
   -5.5470   -1.6000    0.5680 H   0  0  0  0  0  0  0  0  0  0  0  0
   -3.3720    0.1420   -2.6240 H   0  0  0  0  0  0  0  0  0  0  0  0
   -3.5990   -1.6120   -2.2060 H   0  0  0  0  0  0  0  0  0  0  0  0
    0.8930    1.0760   -1.0890 H   0  0  0  0  0  0  0  0  0  0  0  0
    4.6030   -1.1660   -0.2250 H   0  0  0  0  0  0  0  0  0  0  0  0
    4.7860   -3.6870    2.2690 H   0  0  0  0  0  0  0  0  0  0  0  0
    6.2220   -0.3840   -2.0060 H   0  0  0  0  0  0  0  0  0  0  0  0
    7.7230    3.4090   -1.4510 O   0  0  0  0  0  0  0  0  0  0  0  0
    6.6170    3.4450    0.5930 O   0  0  0  0  0  0  0  0  0  0  0  0
    8.3870    1.9460    0.4310 O   0  0  0  0  0  0  0  0  0  0  0  0
    7.1470    4.1630    0.9660 H   0  0  0  0  0  0  0  0  0  0  0  0
   -8.8570    1.0980   -0.3800 C   0  0  0  0  0  0  0  0  0  0  0  0
  -10.1370    1.0810    0.4150 C   0  0  0  0  0  0  0  0  0  0  0  0
  -10.2000    1.7220    1.6380 C   0  0  0  0  0  0  0  0  0  0  0  0
  -11.3740    1.7060    2.3670 C   0  0  0  0  0  0  0  0  0  0  0  0
  -12.4850    1.0490    1.8730 C   0  0  0  0  0  0  0  0  0  0  0  0
  -12.4230    0.4090    0.6500 C   0  0  0  0  0  0  0  0  0  0  0  0
  -11.2500    0.4280   -0.0820 C   0  0  0  0  0  0  0  0  0  0  0  0
   -8.3100    2.0170   -0.1680 H   0  0  0  0  0  0  0  0  0  0  0  0
   -9.0890    1.0520   -1.4440 H   0  0  0  0  0  0  0  0  0  0  0  0
   -9.3310    2.2350    2.0240 H   0  0  0  0  0  0  0  0  0  0  0  0
  -11.4220    2.2060    3.3230 H   0  0  0  0  0  0  0  0  0  0  0  0
  -13.4030    1.0360    2.4440 H   0  0  0  0  0  0  0  0  0  0  0  0
  -13.2910   -0.1050    0.2640 H   0  0  0  0  0  0  0  0  0  0  0  0
  -11.2010   -0.0720   -1.0370 H   0  0  0  0  0  0  0  0  0  0  0  0
   -8.4100   -0.8730    0.8370 O   0  0  0  0  0  0  0  0  0  0  0  0
 12 25  1  0  0  0  0
 20 25  1  0  0  0  0
 10 20  1  0  0  0  0
 11 25  1  0  0  0  0
  1 27  2  0  0  0  0
  1 24  1  0  0  0  0
  1  2  1  0  0  0  0
 10 11  1  0  0  0  0
  9 10  1  0  0  0  0
 10 21  1  0  0  0  0
  5 24  1  0  0  0  0
  8  9  1  0  0  0  0
  8 21  1  0  0  0  0
  8 30  1  0  0  0  0
 13 26  2  0  0  0  0
  2  3  1  0  0  0  0
  2  6  1  0  0  0  0
 13 30  1  0  0  0  0
 13 22  1  0  0  0  0
  5  6  1  0  0  0  0
  3  4  1  0  0  0  0
 16 17  1  0  0  0  0
  7 31  1  0  0  0  0
 14 22  1  0  0  0  0
 14 19  1  0  0  0  0
 14 15  1  0  0  0  0
  4 23  1  0  0  0  0
 19 23  1  0  0  0  0
  4  7  1  0  0  0  0
 19 29  2  0  0  0  0
 15 16  1  0  0  0  0
 16 18  1  0  0  0  0
  7 28  1  0  0  0  0
  2 32  1  0  0  0  0
  3 33  1  0  0  0  0
  3 34  1  0  0  0  0
  4 35  1  0  0  0  0
  5 36  1  0  0  0  0
  5 37  1  0  0  0  0
  6 38  1  0  0  0  0
  6 39  1  0  0  0  0
  7 40  1  0  0  0  0
  8 41  1  0  0  0  0
  9 42  1  0  0  0  0
  9 43  1  0  0  0  0
 11 44  1  0  0  0  0
 11 45  1  0  0  0  0
 14 46  1  0  0  0  0
 15 47  1  0  0  0  0
 15 48  1  0  0  0  0
 16 49  1  0  0  0  0
 17 50  1  0  0  0  0
 17 51  1  0  0  0  0
 17 52  1  0  0  0  0
 18 53  1  0  0  0  0
 18 54  1  0  0  0  0
 18 55  1  0  0  0  0
 20 56  1  0  0  0  0
 20 57  1  0  0  0  0
 21 58  1  0  0  0  0
 21 59  1  0  0  0  0
 22 60  1  0  0  0  0
 23 61  1  0  0  0  0
 24 62  1  0  0  0  0
 28 63  1  0  0  0  0
 31 64  2  0  0  0  0
 31 65  1  0  0  0  0
 31 66  2  0  0  0  0
 65 67  1  0  0  0  0
 12 68  1  0  0  0  0
 68 69  1  0  0  0  0
 69 70  1  0  0  0  0
 70 71  2  0  0  0  0
 71 72  1  0  0  0  0
 72 73  2  0  0  0  0
 73 74  1  0  0  0  0
 69 74  2  0  0  0  0
 68 75  1  0  0  0  0
 68 76  1  0  0  0  0
 70 77  1  0  0  0  0
 71 78  1  0  0  0  0
 72 79  1  0  0  0  0
 73 80  1  0  0  0  0
 74 81  1  0  0  0  0
 12 82  2  0  0  0  0
M  END
> <OPENEYE_ISO_SMILES>
CC(C)C[C@@H](C(=O)N[C@@H](C[C@@H]1CCNC1=O)[C@H](O)S(=O)(=O)O)NC(=O)OC2CC3(C2)CN(C3)C(=O)Cc4ccccc4

> <OPENEYE_INCHI>
InChI=1S/C28H40N4O9S/c1-17(2)10-21(25(35)30-22(26(36)42(38,39)40)12-19-8-9-29-24(19)34)31-27(37)41-20-13-28(14-20)15-32(16-28)23(33)11-18-6-4-3-5-7-18/h3-7,17,19-22,26,36H,8-16H2,1-2H3,(H,29,34)(H,30,35)(H,31,37)(H,38,39,40)/t19-,21-,22-,26+/m0/s1

> <OPENEYE_INCHIKEY>
BUKWXURASAKBCJ-QOAPGFADSA-N

> <FORMULA>
C28H40N4O9S

$$$$
