@<TRIPOS>MOLECULE
/home/pku/3cl/gett_pdb/5RSF/5RSF_mol2/ligand/5RSF_W5M.pdb
 20 21 0 0 0
SMALL
GASTEIGER

@<TRIPOS>ATOM
      1  C01      -45.3970  -29.2300    2.1100 C.3   201  W5M201      0.0157
      2  C03      -47.7040  -29.0180    2.9680 C.ar  201  W5M201      0.0987
      3  C05      -47.3390  -29.1550    5.0540 C.ar  201  W5M201      0.1635
      4  C06      -47.3320  -29.2440    6.4560 C.3   201  W5M201      0.2799
      5  C09      -45.0700  -29.5490    6.3870 C.cat 201  W5M201      0.4052
      6  C12      -46.1590  -29.2780    4.4340 C.ar  201  W5M201      0.2301
      7  N02      -46.4070  -29.1610    3.1540 N.ar  201  W5M201     -0.3065
      8  N04      -48.2920  -28.9870    4.1030 N.ar  201  W5M201     -0.2316
      9  N07      -48.5250  -29.1400    7.2870 N.3   201  W5M201     -0.2837
     10  N08      -46.1940  -29.4490    7.0560 N.2   201  W5M201     -0.0788
     11  N10      -43.8770  -29.7300    7.1440 N.pl3 201  W5M201     -0.2488
     12  N11      -44.9970  -29.4850    5.1080 N.pl3 201  W5M201     -0.0208
     13 H012      -45.8220  -29.1440    1.2430 H     201  W5M201      0.0457
     14 H013      -44.9370  -30.0820    2.1610 H     201  W5M201      0.0457
     15 H011      -44.7580  -28.5100    2.2300 H     201  W5M201      0.0457
     16 H031      -48.1170  -28.8910    2.1450 H     201  W5M201      0.1029
     17 H072      -48.9030  -28.3760    7.4030 H     201  W5M201      0.1223
     18 H071      -48.8510  -29.8420    7.6610 H     201  W5M201      0.1223
     19 H101      -43.1440  -29.9410    6.7470 H     201  W5M201      0.2413
     20 H102      -43.8900  -29.6280    7.9980 H     201  W5M201      0.2413
@<TRIPOS>BOND
     1    13     1    1
     2     1    14    1
     3     1    15    1
     4     1     7    1
     5    16     2    1
     6     2     7   ar
     7     2     8   ar
     8     7     6   ar
     9     8     3   ar
    10     6     3   ar
    11     6    12    1
    12     3     4    1
    13    12     5    1
    14     5    10    2
    15     5    11    1
    16     4    10    1
    17     4     9    1
    18    19    11    1
    19    11    20    1
    20     9    17    1
    21     9    18    1
