@<TRIPOS>MOLECULE
/home/pku/3cl/gett_pdb/7TWY/7TWY_mol2/ligand/7TWY_AR6.pdb
 57 60 0 0 0
SMALL
GASTEIGER

@<TRIPOS>ATOM
      1  N1        15.0110    1.5980    6.1030 N.2   201  AR6201     -0.2420
      2  C2        14.7350    0.4190    5.5320 C.2   201  AR6201      0.1049
      3  N3        14.5760    0.1690    4.2350 N.pl3 201  AR6201     -0.1840
      4  C4        14.7570    1.2590    3.4820 C.ar  201  AR6201      0.1528
      5  C5        15.0830    2.5320    3.9430 C.ar  201  AR6201      0.1287
      6  C6        15.2080    2.6710    5.3330 C.3   201  AR6201      0.2004
      7  N6        15.5240    3.8710    5.9270 N.3   201  AR6201     -0.2985
      8  N7        15.2080    3.3910    2.8720 N.ar  201  AR6201     -0.2346
      9  C8        14.9820    2.6490    1.8050 C.ar  201  AR6201      0.0999
     10  N9        14.6870    1.3580    2.1350 N.ar  201  AR6201     -0.2877
     11  PA        18.0140    1.4830   -1.6660 P.3   201  AR6201      0.2182
     12  PB        19.5660   -0.1610   -3.5700 P.3   201  AR6201      0.2182
     13  C1'       14.3920    0.2230    1.2600 C.3   201  AR6201      0.1665
     14  O1A       17.5860    2.4310   -2.7400 O.co2 201  AR6201     -0.5170
     15  O1B       18.3510   -0.4030   -4.3930 O.2   201  AR6201     -0.5170
     16  C1D       21.5530    4.5600   -2.3060 C.3   201  AR6201      0.1854
     17  O1D       21.2920    5.6750   -2.9810 O.3   201  AR6201     -0.3649
     18  C2'       13.9040    0.5060   -0.0700 C.3   201  AR6201      0.1285
     19  O2'       12.4940    0.7250    0.0130 O.3   201  AR6201     -0.3847
     20  O2A       18.4730    2.0460   -0.3680 O.3   201  AR6201     -0.4371
     21  O2B       20.4710   -1.2950   -3.2510 O.co2 201  AR6201     -0.4371
     22  C2D       23.0350    4.0810   -2.3530 C.3   201  AR6201      0.1339
     23  O2D       23.9340    5.1790   -2.0500 O.3   201  AR6201     -0.3841
     24  C3'       14.3080   -0.7510   -0.8720 C.3   201  AR6201      0.1135
     25  O3'       13.3740   -1.7930   -0.7420 O.3   201  AR6201     -0.3864
     26  O3A       19.1660    0.4720   -2.1390 O.3   201  AR6201     -0.2703
     27  C3D       23.2050    3.4130   -3.5500 C.3   201  AR6201      0.1141
     28  O3D       23.7090    4.2580   -4.6260 O.3   201  AR6201     -0.3864
     29  C4'       15.6210   -1.1580   -0.1500 C.3   201  AR6201      0.1133
     30  O4'       15.6460   -0.5150    1.0960 O.3   201  AR6201     -0.3456
     31  C4D       21.7640    2.8870   -3.8870 C.3   201  AR6201      0.1138
     32  O4D       20.9080    3.4240   -2.9420 O.3   201  AR6201     -0.3407
     33  C5'       16.8970   -0.7900   -0.9070 C.3   201  AR6201      0.0836
     34  O5'       16.7520    0.5180   -1.4390 O.3   201  AR6201     -0.3246
     35  C5D       21.6540    1.3980   -3.7820 C.3   201  AR6201      0.0837
     36  O5D       20.3580    1.0240   -4.2700 O.3   201  AR6201     -0.3246
     37  H2        14.5970   -0.2970    6.1090 H     201  AR6201      0.1015
     38  HN6       16.3400    4.0470    6.1360 H     201  AR6201      0.1209
     39 HN6A       14.9060    4.4480    6.0890 H     201  AR6201      0.1209
     40  H8        14.9830    2.9730    0.9350 H     201  AR6201      0.1030
     41  H1'       13.7700   -0.3340    1.6880 H     201  AR6201      0.0866
     42  H1D       21.2670    4.6400   -1.4140 H     201  AR6201      0.0935
     43  H2'       14.3370    1.2630   -0.4160 H     201  AR6201      0.0665
     44 HO2'       12.2490    1.1960   -0.6270 H     201  AR6201      0.2101
     45  H2D       23.1400    3.4410   -1.6730 H     201  AR6201      0.0671
     46 HO2D       24.2650    5.0670   -1.2740 H     201  AR6201      0.2101
     47  H3'       14.4680   -0.5390   -1.7710 H     201  AR6201      0.0647
     48 HO3'       13.1530   -2.0620   -1.4990 H     201  AR6201      0.2100
     49  H3D       23.7850    2.6850   -3.4180 H     201  AR6201      0.0648
     50 HO3D       23.5870    3.8700   -5.3700 H     201  AR6201      0.2100
     51  H4'       15.6090   -2.0840   -0.0060 H     201  AR6201      0.0647
     52  H4D       21.5110    3.1720   -4.7430 H     201  AR6201      0.0647
     53  H5'       17.6300   -0.8130   -0.3220 H     201  AR6201      0.0591
     54 H5'A       17.0330   -1.4010   -1.6080 H     201  AR6201      0.0591
     55  H5D       22.3430    0.9800   -4.3190 H     201  AR6201      0.0591
     56 H5DA       21.7480    1.1250   -2.8560 H     201  AR6201      0.0591
     57  HD1       20.6400    6.0790   -2.6170 H     201  AR6201      0.2126
@<TRIPOS>UNITY_ATOM_ATTR
14 1
charge -1
21 1
charge -1
@<TRIPOS>BOND
     1    50    28    1
     2    52    31    1
     3    28    27    1
     4    15    12    2
     5    55    35    1
     6    36    35    1
     7    36    12    1
     8    31    35    1
     9    31    27    1
    10    31    32    1
    11    35    56    1
    12    12    21    1
    13    12    26    1
    14    27    49    1
    15    27    22    1
    16    17    57    1
    17    17    16    1
    18    32    16    1
    19    14    11    2
    20    22    16    1
    21    22    23    1
    22    22    45    1
    23    16    42    1
    24    26    11    1
    25    23    46    1
    26    47    24    1
    27    11    34    1
    28    11    20    1
    29    54    33    1
    30    48    25    1
    31    34    33    1
    32    33    53    1
    33    33    29    1
    34    24    25    1
    35    24    29    1
    36    24    18    1
    37    44    19    1
    38    43    18    1
    39    29    51    1
    40    29    30    1
    41    18    19    1
    42    18    13    1
    43    40     9    1
    44    30    13    1
    45    13    41    1
    46    13    10    1
    47     9    10   ar
    48     9     8   ar
    49    10     4   ar
    50     8     5   ar
    51     4     5   ar
    52     4     3    1
    53     5     6    1
    54     3     2    1
    55     6     7    1
    56     6     1    1
    57     2     1    2
    58     2    37    1
    59     7    39    1
    60     7    38    1
