@<TRIPOS>MOLECULE
/home/pku/3cl/gett_pdb/4YLU/4YLU_mol2/ligand/4YLU_R30.pdb
 51 54 0 0 0
SMALL
GASTEIGER

@<TRIPOS>ATOM
      1  O01       35.1220  -20.1950   36.0920 O.2   401  R30401     -0.2732
      2  C02       36.0310  -19.6100   36.7490 C.2   401  R30401      0.2416
      3  N03       37.3290  -19.8310   36.4120 N.am  401  R30401     -0.2656
      4  C04       38.4120  -19.2040   37.1170 C.ar  401  R30401      0.0368
      5  C05       38.9650  -18.0060   36.6400 C.ar  401  R30401     -0.0385
      6  C06       40.0740  -17.3380   37.2400 C.ar  401  R30401     -0.0387
      7  C07       40.6850  -17.8120   38.3980 C.ar  401  R30401      0.0335
      8  N08       41.8150  -17.1460   39.0360 N.am  401  R30401     -0.2855
      9  C09       42.1520  -15.7920   38.9550 C.2   401  R30401      0.2169
     10  C10       43.3640  -15.0950   39.6100 C.3   401  R30401      0.0215
     11  C11       43.0920  -13.9230   40.5440 C.3   401  R30401     -0.0570
     12  O12       41.4100  -15.0440   38.2910 O.2   401  R30401     -0.2755
     13  C13       40.1350  -19.0090   38.8990 C.ar  401  R30401     -0.0387
     14  C14       39.0250  -19.6760   38.2890 C.ar  401  R30401     -0.0385
     15  C15       37.7100  -20.8150   35.3750 C.3   401  R30401      0.0454
     16  C16       38.7430  -21.8210   35.9020 C.ar  401  R30401     -0.0227
     17  C17       40.0680  -21.5890   35.8020 C.ar  401  R30401     -0.0196
     18  S18       41.0200  -22.7930   36.5390 S.2   401  R30401     -0.1047
     19  C19       39.6420  -23.6560   37.0530 C.ar  401  R30401     -0.0240
     20  C20       38.5230  -23.0080   36.6500 C.ar  401  R30401     -0.0500
     21  C21       35.5800  -18.6610   37.9230 C.3   401  R30401      0.1204
     22  N22       34.2350  -18.2840   38.0440 N.ar  401  R30401     -0.2351
     23  N23       33.3480  -18.9770   38.8340 N.ar  401  R30401     -0.0641
     24  N24       32.1930  -18.4870   38.7590 N.ar  401  R30401     -0.1295
     25  C25       32.2460  -17.3510   37.8330 C.ar  401  R30401      0.1127
     26  C26       33.5730  -17.2690   37.3990 C.ar  401  R30401      0.0895
     27  C27       33.9850  -16.2630   36.4860 C.ar  401  R30401     -0.0345
     28  C28       33.0580  -15.3540   36.0150 C.ar  401  R30401     -0.0596
     29  C29       31.6950  -15.4450   36.4500 C.ar  401  R30401     -0.0596
     30  C30       31.2980  -16.4470   37.3570 C.ar  401  R30401     -0.0324
     31 H051       38.5660  -17.5510   35.7140 H     401  R30401      0.0637
     32 H061       40.3920  -16.4130   36.7310 H     401  R30401      0.0637
     33 H081       42.4580  -17.7120   39.5810 H     401  R30401      0.1548
     34 H101       44.0340  -15.7960   40.1440 H     401  R30401      0.0356
     35 H102       44.0760  -14.6950   38.8320 H     401  R30401      0.0356
     36 H111       42.4810  -13.1200   40.1030 H     401  R30401      0.0234
     37 H112       43.9890  -13.4390   40.9640 H     401  R30401      0.0234
     38 H113       42.5160  -14.1600   41.4870 H     401  R30401      0.0234
     39 H131       40.5850  -19.4320   39.8190 H     401  R30401      0.0637
     40 H141       38.7100  -20.6090   38.7830 H     401  R30401      0.0637
     41 H151       37.9750  -20.3110   34.3770 H     401  R30401      0.0518
     42 H152       36.7540  -21.3380   35.0120 H     401  R30401      0.0518
     43 H171       40.6540  -20.8130   35.3450 H     401  R30401      0.0696
     44 H191       39.8220  -24.5850   37.5970 H     401  R30401      0.0693
     45 H201       37.5800  -23.4480   36.9170 H     401  R30401      0.0626
     46 H211       36.2660  -17.7710   37.9460 H     401  R30401      0.0606
     47 H212       35.8180  -19.1500   38.9090 H     401  R30401      0.0606
     48 H271       35.0080  -16.1860   36.1290 H     401  R30401      0.0639
     49 H281       33.3380  -14.5470   35.2820 H     401  R30401      0.0618
     50 H291       30.9750  -14.6820   36.0490 H     401  R30401      0.0618
     51 H301       30.2370  -16.4250   37.6500 H     401  R30401      0.0640
@<TRIPOS>BOND
     1    41    15    1
     2    42    15    1
     3    49    28    1
     4    43    17    1
     5    15    16    1
     6    15     3    1
     7    31     5    1
     8    17    16   ar
     9    17    18   ar
    10    16    20   ar
    11    28    29   ar
    12    28    27   ar
    13    50    29    1
    14     1     2    2
    15    48    27    1
    16     3     2   am
    17     3     4    1
    18    29    30   ar
    19    27    26   ar
    20    18    19   ar
    21     5     4   ar
    22     5     6   ar
    23    20    45    1
    24    20    19   ar
    25    32     6    1
    26     2    21    1
    27    19    44    1
    28     4    14   ar
    29     6     7   ar
    30    30    51    1
    31    30    25   ar
    32    26    25   ar
    33    26    22   ar
    34    25    24   ar
    35    21    46    1
    36    21    22    1
    37    21    47    1
    38    22    23   ar
    39    14    40    1
    40    14    13   ar
    41    12     9    2
    42     7    13   ar
    43     7     8    1
    44    24    23   ar
    45    35    10    1
    46    13    39    1
    47     9     8   am
    48     9    10    1
    49     8    33    1
    50    10    34    1
    51    10    11    1
    52    36    11    1
    53    11    37    1
    54    11    38    1
