WUS
  -OEChem-02242320043D

 24 25  0     1  0  0  0  0  0999 V2000
    0.2260   -0.5680   -0.0660 C   0  0  0  0  0  0  0  0  0  0  0  0
    3.8370   -0.4240    0.0210 C   0  0  0  0  0  0  0  0  0  0  0  0
    2.3470   -0.1990    0.0080 C   0  0  0  0  0  0  0  0  0  0  0  0
    1.7310    1.0030    0.0880 N   0  0  0  0  0  0  0  0  0  0  0  0
    0.3910    0.7680    0.0420 C   0  0  0  0  0  0  0  0  0  0  0  0
   -0.7370    1.7650    0.0950 C   0  0  0  0  0  0  0  0  0  0  0  0
   -2.0160    1.0750   -0.3990 C   0  0  0  0  0  0  0  0  0  0  0  0
   -2.1900   -0.2590    0.3310 C   0  0  2  0  0  0  0  0  0  0  0  0
   -1.1180   -1.2480   -0.1450 C   0  0  0  0  0  0  0  0  0  0  0  0
   -3.5220   -0.8050    0.0420 N   0  0  0  0  0  0  0  0  0  0  0  0
    1.4360   -1.1330   -0.0810 N   0  0  0  0  0  0  0  0  0  0  0  0
    4.1760   -0.5560    1.0480 H   0  0  0  0  0  0  0  0  0  0  0  0
    4.0740   -1.3170   -0.5580 H   0  0  0  0  0  0  0  0  0  0  0  0
    4.3380    0.4380   -0.4190 H   0  0  0  0  0  0  0  0  0  0  0  0
    2.1620    1.8690    0.1630 H   0  0  0  0  0  0  0  0  0  0  0  0
   -0.8780    2.1060    1.1210 H   0  0  0  0  0  0  0  0  0  0  0  0
   -0.5070    2.6150   -0.5470 H   0  0  0  0  0  0  0  0  0  0  0  0
   -2.8750    1.7150   -0.1970 H   0  0  0  0  0  0  0  0  0  0  0  0
   -1.9400    0.8950   -1.4720 H   0  0  0  0  0  0  0  0  0  0  0  0
   -2.0870   -0.1020    1.4050 H   0  0  0  0  0  0  0  0  0  0  0  0
   -1.3210   -1.5420   -1.1750 H   0  0  0  0  0  0  0  0  0  0  0  0
   -1.1220   -2.1290    0.4960 H   0  0  0  0  0  0  0  0  0  0  0  0
   -3.6620   -1.6870    0.5130 H   0  0  0  0  0  0  0  0  0  0  0  0
   -4.2450   -0.1460    0.2880 H   0  0  0  0  0  0  0  0  0  0  0  0
  2  3  1  0  0  0  0
  3 11  2  0  0  0  0
  1 11  1  0  0  0  0
  3  4  1  0  0  0  0
  1  9  1  0  0  0  0
  1  5  2  0  0  0  0
  4  5  1  0  0  0  0
  8  9  1  0  0  0  0
  5  6  1  0  0  0  0
  8 10  1  0  0  0  0
  7  8  1  0  0  0  0
  6  7  1  0  0  0  0
  2 12  1  0  0  0  0
  2 13  1  0  0  0  0
  2 14  1  0  0  0  0
  4 15  1  0  0  0  0
  6 16  1  0  0  0  0
  6 17  1  0  0  0  0
  7 18  1  0  0  0  0
  7 19  1  0  0  0  0
  8 20  1  0  0  0  0
  9 21  1  0  0  0  0
  9 22  1  0  0  0  0
 10 23  1  0  0  0  0
 10 24  1  0  0  0  0
M  END
> <OPENEYE_ISO_SMILES>
Cc1[nH]c2c(n1)C[C@@H](CC2)N

> <OPENEYE_INCHI>
InChI=1S/C8H13N3/c1-5-10-7-3-2-6(9)4-8(7)11-5/h6H,2-4,9H2,1H3,(H,10,11)/t6-/m1/s1

> <OPENEYE_INCHIKEY>
JGCNHPQMPGHGHT-ZCFIWIBFSA-N

> <FORMULA>
C8H13N3

$$$$
