VVP
  -OEChem-02242320043D

 20 21  0     0  0  0  0  0  0999 V2000
    2.5650    0.0140   -0.0010 N   0  0  0  0  0  0  0  0  0  0  0  0
   -0.4740    2.1910    0.0010 C   0  0  0  0  0  0  0  0  0  0  0  0
    0.8750    1.9150    0.0010 C   0  0  0  0  0  0  0  0  0  0  0  0
    1.3160    0.5940   -0.0000 C   0  0  0  0  0  0  0  0  0  0  0  0
    2.4440   -1.3500   -0.0010 C   0  0  0  0  0  0  0  0  0  0  0  0
    1.1460   -1.6940    0.0040 C   0  0  0  0  0  0  0  0  0  0  0  0
   -3.2890   -0.7790   -0.0000 C   0  0  0  0  0  0  0  0  0  0  0  0
   -1.9110   -1.1580   -0.0010 O   0  0  0  0  0  0  0  0  0  0  0  0
   -0.9950   -0.1540   -0.0010 C   0  0  0  0  0  0  0  0  0  0  0  0
   -1.4080    1.1640   -0.0000 C   0  0  0  0  0  0  0  0  0  0  0  0
    0.3740   -0.4490   -0.0010 C   0  0  0  0  0  0  0  0  0  0  0  0
    3.4040    0.4990   -0.0040 H   0  0  0  0  0  0  0  0  0  0  0  0
   -0.8090    3.2180    0.0020 H   0  0  0  0  0  0  0  0  0  0  0  0
    1.5920    2.7230    0.0010 H   0  0  0  0  0  0  0  0  0  0  0  0
    3.2700   -2.0460   -0.0060 H   0  0  0  0  0  0  0  0  0  0  0  0
    0.7480   -2.6970    0.0050 H   0  0  0  0  0  0  0  0  0  0  0  0
   -3.9120   -1.6730   -0.0000 H   0  0  0  0  0  0  0  0  0  0  0  0
   -3.5030   -0.1870    0.8900 H   0  0  0  0  0  0  0  0  0  0  0  0
   -3.5030   -0.1870   -0.8900 H   0  0  0  0  0  0  0  0  0  0  0  0
   -2.4630    1.3970    0.0000 H   0  0  0  0  0  0  0  0  0  0  0  0
  2  3  2  0  0  0  0
  2 10  1  0  0  0  0
  3  4  1  0  0  0  0
  9 10  2  0  0  0  0
  1  4  1  0  0  0  0
  4 11  2  0  0  0  0
  1  5  1  0  0  0  0
  9 11  1  0  0  0  0
  8  9  1  0  0  0  0
  6 11  1  0  0  0  0
  7  8  1  0  0  0  0
  5  6  2  0  0  0  0
  1 12  1  0  0  0  0
  2 13  1  0  0  0  0
  3 14  1  0  0  0  0
  5 15  1  0  0  0  0
  6 16  1  0  0  0  0
  7 17  1  0  0  0  0
  7 18  1  0  0  0  0
  7 19  1  0  0  0  0
 10 20  1  0  0  0  0
M  END
> <OPENEYE_ISO_SMILES>
COc1cccc2c1cc[nH]2

> <OPENEYE_INCHI>
InChI=1S/C9H9NO/c1-11-9-4-2-3-8-7(9)5-6-10-8/h2-6,10H,1H3

> <OPENEYE_INCHIKEY>
LUNOXNMCFPFPMO-UHFFFAOYSA-N

> <FORMULA>
C9H9NO

$$$$
