@<TRIPOS>MOLECULE
/home/pku/3cl/gett_pdb/5RT8/5RT8_mol2/ligand/5RT8_HLR.pdb
 16 17 0 0 0
SMALL
GASTEIGER

@<TRIPOS>ATOM
      1  C1       -49.6200  -29.1100    5.9710 C.ar  201  HLR201      0.0626
      2  C2       -48.2710  -29.0390    6.3330 C.ar  201  HLR201     -0.0476
      3  C3       -47.3280  -28.9650    5.3160 C.ar  201  HLR201     -0.0609
      4  C4       -47.7320  -28.9650    3.9730 C.ar  201  HLR201     -0.0582
      5  C5       -49.0590  -29.0320    3.6230 C.ar  201  HLR201     -0.0160
      6  C6       -50.0150  -29.1060    4.6520 C.ar  201  HLR201      0.1691
      7  C        -50.8180  -29.2030    6.7360 C.ar  201  HLR201      0.1667
      8  N1       -51.8160  -29.2690    5.8520 N.ar  201  HLR201     -0.0624
      9  N2       -50.8540  -29.2310    8.1710 N.pl3 201  HLR201     -0.3400
     10  O7       -51.3380  -29.1920    4.6200 O.2   201  HLR201     -0.3528
     11  H2       -48.0130  -29.0410    7.2270 H     201  HLR201      0.0626
     12  H3       -46.4240  -28.9080    5.5270 H     201  HLR201      0.0618
     13  H4       -47.0880  -28.9040    3.3050 H     201  HLR201      0.0619
     14  H5       -49.3010  -29.0230    2.7360 H     201  HLR201      0.0655
     15 H21N      -50.7140  -28.5100    8.6190 H     201  HLR201      0.1438
     16 H22N      -51.0160  -29.9680    8.5830 H     201  HLR201      0.1438
@<TRIPOS>BOND
     1    14     5    1
     2    13     4    1
     3     5     4   ar
     4     5     6   ar
     5     4     3   ar
     6    10     6   ar
     7    10     8   ar
     8     6     1   ar
     9     3    12    1
    10     3     2   ar
    11     8     7   ar
    12     1     2   ar
    13     1     7   ar
    14     2    11    1
    15     7     9    1
    16     9    16    1
    17     9    15    1
