@<TRIPOS>MOLECULE
/home/pku/3cl/gett_pdb/8ASQ/8ASQ_mol2/ligand/8ASQ_NT9.pdb
 27 28 0 0 0
SMALL
GASTEIGER

@<TRIPOS>ATOM
      1  C10       13.2000  -13.1170    5.7920 C.ar  201  NT9201     -0.0541
      2  C14       15.5200  -15.9340    1.4930 C.ar  201  NT9201     -0.0568
      3  C13       14.9110  -15.2540    2.5380 C.ar  201  NT9201     -0.0532
      4  C11       14.0090  -12.0830    6.2020 C.ar  201  NT9201     -0.0237
      5  C01       16.1920  -16.4360   -2.2550 C.3   201  NT9201     -0.0155
      6  C03       17.3780  -16.2840   -0.1590 C.3   201  NT9201      0.0210
      7  C04       16.7440  -15.5130    1.0060 C.ar  201  NT9201     -0.0336
      8  C05       17.3610  -14.4000    1.5800 C.ar  201  NT9201     -0.0568
      9  C06       16.7580  -13.7260    2.6370 C.ar  201  NT9201     -0.0532
     10  C07       15.5210  -14.1450    3.1140 C.ar  201  NT9201     -0.0113
     11  C08       14.8740  -13.5090    4.1750 C.ar  201  NT9201      0.0193
     12  C09       13.6530  -13.8550    4.7120 C.ar  201  NT9201     -0.0469
     13  N02       16.3640  -17.0090   -0.9230 N.3   201  NT9201     -0.3150
     14  S12       15.3550  -12.1690    5.1440 S.2   201  NT9201     -0.0967
     15  H1        12.2630  -13.3410    6.2870 H     201  NT9201      0.0623
     16  H2        15.0350  -16.7990    1.0580 H     201  NT9201      0.0621
     17  H3        13.9510  -15.5910    2.9080 H     201  NT9201      0.0624
     18  H4        13.8360  -11.3790    7.0060 H     201  NT9201      0.0693
     19  H5        17.0900  -16.6050   -2.8410 H     201  NT9201      0.0388
     20  H6        16.0120  -15.3680   -2.1690 H     201  NT9201      0.0388
     21  H7        15.3450  -16.9070   -2.7450 H     201  NT9201      0.0388
     22  H8        17.8840  -15.5840   -0.8160 H     201  NT9201      0.0473
     23  H9        18.1000  -16.9920    0.2340 H     201  NT9201      0.0473
     24  H10       18.3160  -14.0600    1.2000 H     201  NT9201      0.0621
     25  H11       17.2530  -12.8750    3.0880 H     201  NT9201      0.0624
     26  H12       13.0700  -14.6720    4.3040 H     201  NT9201      0.0629
     27  H13       16.6550  -17.9620   -1.0190 H     201  NT9201      0.1219
@<TRIPOS>BOND
     1    19     5    1
     2    21     5    1
     3     5    20    1
     4     5    13    1
     5    27    13    1
     6    13     6    1
     7    22     6    1
     8     6    23    1
     9     6     7    1
    10     7     2   ar
    11     7     8   ar
    12    16     2    1
    13    24     8    1
    14     2     3   ar
    15     8     9   ar
    16     3    17    1
    17     3    10   ar
    18     9    25    1
    19     9    10   ar
    20    10    11    1
    21    11    12   ar
    22    11    14   ar
    23    26    12    1
    24    12     1   ar
    25    14     4   ar
    26     1     4   ar
    27     1    15    1
    28     4    18    1
