G7O
  -OEChem-02242320023D

 32 34  0     0  0  0  0  0  0999 V2000
    4.2580    1.7000   -1.6350 C   0  0  0  0  0  0  0  0  0  0  0  0
    3.6920    0.6000   -1.1480 C   0  0  0  0  0  0  0  0  0  0  0  0
    2.7970    0.6850    0.0160 C   0  0  0  0  0  0  0  0  0  0  0  0
    1.1670   -0.3050    1.5320 C   0  0  0  0  0  0  0  0  0  0  0  0
   -0.1970   -0.0290    0.9540 C   0  0  0  0  0  0  0  0  0  0  0  0
   -2.2170   -0.5450    0.1110 C   0  0  0  0  0  0  0  0  0  0  0  0
   -3.3050   -1.3210   -0.3390 C   0  0  0  0  0  0  0  0  0  0  0  0
   -4.4280   -0.7200   -0.8220 C   0  0  0  0  0  0  0  0  0  0  0  0
   -4.5240    0.6630   -0.8800 C   0  0  0  0  0  0  0  0  0  0  0  0
   -3.4770    1.4460   -0.4470 C   0  0  0  0  0  0  0  0  0  0  0  0
   -2.3210    0.8490    0.0500 C   0  0  0  0  0  0  0  0  0  0  0  0
    2.4140   -1.7140   -0.1710 C   0  0  0  0  0  0  0  0  0  0  0  0
    1.2770   -2.3710   -0.9560 C   0  0  0  0  0  0  0  0  0  0  0  0
    1.6900   -2.9320    0.4060 C   0  0  0  0  0  0  0  0  0  0  0  0
    2.1450   -0.4130    0.4470 N   0  0  0  0  0  0  0  0  0  0  0  0
   -1.0320   -0.9370    0.6160 N   0  0  0  0  0  0  0  0  0  0  0  0
    2.6470    1.7470    0.5900 O   0  0  0  0  0  0  0  0  0  0  0  0
   -0.8240    1.5330    0.6750 S   0  0  0  0  0  0  0  0  0  0  0  0
    4.9150    1.6370   -2.4900 H   0  0  0  0  0  0  0  0  0  0  0  0
    4.0580    2.6580   -1.1770 H   0  0  0  0  0  0  0  0  0  0  0  0
    3.8890   -0.3570   -1.6090 H   0  0  0  0  0  0  0  0  0  0  0  0
    1.4510    0.5110    2.1970 H   0  0  0  0  0  0  0  0  0  0  0  0
    1.1420   -1.2390    2.0930 H   0  0  0  0  0  0  0  0  0  0  0  0
   -3.2470   -2.3990   -0.3020 H   0  0  0  0  0  0  0  0  0  0  0  0
   -5.2530   -1.3270   -1.1640 H   0  0  0  0  0  0  0  0  0  0  0  0
   -5.4200    1.1260   -1.2650 H   0  0  0  0  0  0  0  0  0  0  0  0
   -3.5520    2.5230   -0.4940 H   0  0  0  0  0  0  0  0  0  0  0  0
    3.4290   -1.8590   -0.5380 H   0  0  0  0  0  0  0  0  0  0  0  0
    0.3290   -1.8350   -1.0140 H   0  0  0  0  0  0  0  0  0  0  0  0
    1.5450   -2.9490   -1.8410 H   0  0  0  0  0  0  0  0  0  0  0  0
    2.2290   -3.8790    0.4180 H   0  0  0  0  0  0  0  0  0  0  0  0
    1.0140   -2.7660    1.2450 H   0  0  0  0  0  0  0  0  0  0  0  0
  1  2  2  0  0  0  0
  2  3  1  0  0  0  0
  3 15  1  0  0  0  0
  3 17  2  0  0  0  0
  4  5  1  0  0  0  0
  4 15  1  0  0  0  0
  5 16  2  0  0  0  0
  5 18  1  0  0  0  0
  6  7  2  0  0  0  0
  6 11  1  0  0  0  0
  6 16  1  0  0  0  0
  7  8  1  0  0  0  0
  8  9  2  0  0  0  0
  9 10  1  0  0  0  0
 10 11  2  0  0  0  0
 11 18  1  0  0  0  0
 12 13  1  0  0  0  0
 12 14  1  0  0  0  0
 12 15  1  0  0  0  0
 13 14  1  0  0  0  0
  1 19  1  0  0  0  0
  1 20  1  0  0  0  0
  2 21  1  0  0  0  0
  4 22  1  0  0  0  0
  4 23  1  0  0  0  0
  7 24  1  0  0  0  0
  8 25  1  0  0  0  0
  9 26  1  0  0  0  0
 10 27  1  0  0  0  0
 12 28  1  0  0  0  0
 13 29  1  0  0  0  0
 13 30  1  0  0  0  0
 14 31  1  0  0  0  0
 14 32  1  0  0  0  0
M  END
> <OPENEYE_ISO_SMILES>
C=CC(=O)N(Cc1nc2ccccc2s1)C3CC3

> <OPENEYE_INCHI>
InChI=1S/C14H14N2OS/c1-2-14(17)16(10-7-8-10)9-13-15-11-5-3-4-6-12(11)18-13/h2-6,10H,1,7-9H2

> <OPENEYE_INCHIKEY>
UIQVVKYYEHVSIZ-UHFFFAOYSA-N

> <FORMULA>
C14H14N2OS

$$$$
