GMP
  -OEChem-02242320023D

 33 35  0     1  0  0  0  0  0999 V2000
    4.7970    1.9170    0.9370 O   0  0  0  0  0  0  0  0  0  0  0  0
    4.4600    0.9830   -0.0920 C   0  0  0  0  0  0  0  0  0  0  0  0
    3.3860    0.0230    0.4230 C   0  0  1  0  0  0  0  0  0  0  0  0
    2.1610    0.7380    0.6550 O   0  0  0  0  0  0  0  0  0  0  0  0
    3.0930   -1.0540   -0.6400 C   0  0  1  0  0  0  0  0  0  0  0  0
    3.3710   -2.3560   -0.1230 O   0  0  0  0  0  0  0  0  0  0  0  0
    1.5810   -0.8970   -0.9320 C   0  0  1  0  0  0  0  0  0  0  0  0
    0.9520   -2.1740   -1.0650 O   0  0  0  0  0  0  0  0  0  0  0  0
    1.0790   -0.1640    0.3380 C   0  0  2  0  0  0  0  0  0  0  0  0
   -0.1480    0.5830    0.0510 N   0  0  0  0  0  0  0  0  0  0  0  0
   -0.2240    1.8790   -0.3700 C   0  0  0  0  0  0  0  0  0  0  0  0
   -1.4700    2.2190   -0.5260 N   0  0  0  0  0  0  0  0  0  0  0  0
   -2.2650    1.1660   -0.2160 C   0  0  0  0  0  0  0  0  0  0  0  0
   -3.6640    0.9580   -0.2020 C   0  0  0  0  0  0  0  0  0  0  0  0
   -4.4320    1.8510   -0.5190 O   0  0  0  0  0  0  0  0  0  0  0  0
   -4.1290   -0.2540    0.1710 N   0  0  0  0  0  0  0  0  0  0  0  0
   -3.2620   -1.2450    0.5240 C   0  0  0  0  0  0  0  0  0  0  0  0
   -3.7630   -2.4670    0.8990 N   0  0  0  0  0  0  0  0  0  0  0  0
   -1.9610   -1.0650    0.5150 N   0  0  0  0  0  0  0  0  0  0  0  0
   -1.4270    0.1070    0.1510 C   0  0  0  0  0  0  0  0  0  0  0  0
    5.4730    2.5580    0.6800 H   0  0  0  0  0  0  0  0  0  0  0  0
    4.0810    1.5210   -0.9610 H   0  0  0  0  0  0  0  0  0  0  0  0
    5.3480    0.4180   -0.3740 H   0  0  0  0  0  0  0  0  0  0  0  0
    3.7210   -0.4470    1.3470 H   0  0  0  0  0  0  0  0  0  0  0  0
    3.6780   -0.8700   -1.5410 H   0  0  0  0  0  0  0  0  0  0  0  0
    4.2940   -2.4900    0.1320 H   0  0  0  0  0  0  0  0  0  0  0  0
    1.4170   -0.2910   -1.8230 H   0  0  0  0  0  0  0  0  0  0  0  0
    1.2980   -2.7080   -1.7930 H   0  0  0  0  0  0  0  0  0  0  0  0
    0.9180   -0.8710    1.1510 H   0  0  0  0  0  0  0  0  0  0  0  0
    0.6230    2.5260   -0.5470 H   0  0  0  0  0  0  0  0  0  0  0  0
   -5.0850   -0.4200    0.1890 H   0  0  0  0  0  0  0  0  0  0  0  0
   -4.7220   -2.6150    0.9100 H   0  0  0  0  0  0  0  0  0  0  0  0
   -3.1590   -3.1820    1.1520 H   0  0  0  0  0  0  0  0  0  0  0  0
  1  2  1  0  0  0  0
  1 21  1  0  0  0  0
  2  3  1  0  0  0  0
  2 22  1  0  0  0  0
  2 23  1  0  0  0  0
  3  4  1  0  0  0  0
  3  5  1  0  0  0  0
  3 24  1  0  0  0  0
  4  9  1  0  0  0  0
  5  6  1  0  0  0  0
  5  7  1  0  0  0  0
  5 25  1  0  0  0  0
  6 26  1  0  0  0  0
  7  8  1  0  0  0  0
  7  9  1  0  0  0  0
  7 27  1  0  0  0  0
  8 28  1  0  0  0  0
  9 10  1  0  0  0  0
  9 29  1  0  0  0  0
 10 11  1  0  0  0  0
 10 20  1  0  0  0  0
 11 12  2  0  0  0  0
 11 30  1  0  0  0  0
 12 13  1  0  0  0  0
 13 14  1  0  0  0  0
 13 20  2  0  0  0  0
 14 15  2  0  0  0  0
 14 16  1  0  0  0  0
 16 17  1  0  0  0  0
 16 31  1  0  0  0  0
 17 18  1  0  0  0  0
 17 19  2  0  0  0  0
 18 32  1  0  0  0  0
 18 33  1  0  0  0  0
 19 20  1  0  0  0  0
M  END
> <OPENEYE_ISO_SMILES>
c1nc2c(=O)[nH]c(nc2n1[C@H]3[C@@H]([C@@H]([C@H](O3)CO)O)O)N

> <OPENEYE_INCHI>
InChI=1S/C10H13N5O5/c11-10-13-7-4(8(19)14-10)12-2-15(7)9-6(18)5(17)3(1-16)20-9/h2-3,5-6,9,16-18H,1H2,(H3,11,13,14,19)/t3-,5-,6-,9-/m1/s1

> <OPENEYE_INCHIKEY>
NYHBQMYGNKIUIF-UUOKFMHZSA-N

> <FORMULA>
C10H13N5O5

$$$$
