SCN
  -OEChem-02242320043D

  3  2  0     0  0  0  0  0  0999 V2000
   -1.0850    0.0000    0.0000 S   0  5  0  0  0  0  0  0  0  0  0  0
    0.7250    0.0000    0.0000 C   0  0  0  0  0  0  0  0  0  0  0  0
    1.8610    0.0000    0.0000 N   0  0  0  0  0  0  0  0  0  0  0  0
  1  2  1  0  0  0  0
  2  3  3  0  0  0  0
M  CHG  1   1  -1
M  END
> <OPENEYE_ISO_SMILES>
C(#N)[S-]

> <OPENEYE_INCHI>
InChI=1S/CHNS/c2-1-3/h3H/p-1

> <OPENEYE_INCHIKEY>
ZMZDMBWJUHKJPS-UHFFFAOYSA-M

> <FORMULA>
CNS-

$$$$
