ADN
  -OEChem-02242320013D

 32 34  0     1  0  0  0  0  0999 V2000
   -2.2240    0.9920   -4.3180 O   0  0  0  0  0  0  0  0  0  0  0  0
   -1.2280   -0.0260   -4.2000 C   0  0  0  0  0  0  0  0  0  0  0  0
   -0.2170    0.3720   -3.1230 C   0  0  1  0  0  0  0  0  0  0  0  0
   -0.8710    0.5010   -1.8420 O   0  0  0  0  0  0  0  0  0  0  0  0
    0.8260   -0.7480   -2.9210 C   0  0  1  0  0  0  0  0  0  0  0  0
    2.0230   -0.4550   -3.6450 O   0  0  0  0  0  0  0  0  0  0  0  0
    1.0970   -0.7400   -1.3980 C   0  0  1  0  0  0  0  0  0  0  0  0
    2.4700   -0.4440   -1.1360 O   0  0  0  0  0  0  0  0  0  0  0  0
    0.1820    0.3820   -0.8620 C   0  0  2  0  0  0  0  0  0  0  0  0
   -0.3720    0.0090    0.4400 N   0  0  0  0  0  0  0  0  0  0  0  0
   -1.5250   -0.6850    0.6570 C   0  0  0  0  0  0  0  0  0  0  0  0
   -1.7170   -0.8410    1.9350 N   0  0  0  0  0  0  0  0  0  0  0  0
   -0.6990   -0.2620    2.6170 C   0  0  0  0  0  0  0  0  0  0  0  0
   -0.3830   -0.1090    3.9780 C   0  0  0  0  0  0  0  0  0  0  0  0
   -1.2060   -0.6320    4.9590 N   0  0  0  0  0  0  0  0  0  0  0  0
    0.7280    0.5430    4.3000 N   0  0  0  0  0  0  0  0  0  0  0  0
    1.5200    1.0450    3.3700 C   0  0  0  0  0  0  0  0  0  0  0  0
    1.2610    0.9320    2.0840 N   0  0  0  0  0  0  0  0  0  0  0  0
    0.1720    0.2950    1.6670 C   0  0  0  0  0  0  0  0  0  0  0  0
   -2.8390    0.7020   -5.0060 H   0  0  0  0  0  0  0  0  0  0  0  0
   -0.7140   -0.1450   -5.1540 H   0  0  0  0  0  0  0  0  0  0  0  0
   -1.7020   -0.9670   -3.9230 H   0  0  0  0  0  0  0  0  0  0  0  0
    0.2760    1.3050   -3.3930 H   0  0  0  0  0  0  0  0  0  0  0  0
    0.4190   -1.7100   -3.2330 H   0  0  0  0  0  0  0  0  0  0  0  0
    1.7800   -0.4130   -4.5800 H   0  0  0  0  0  0  0  0  0  0  0  0
    0.8230   -1.6980   -0.9560 H   0  0  0  0  0  0  0  0  0  0  0  0
    2.9920   -1.1470   -1.5460 H   0  0  0  0  0  0  0  0  0  0  0  0
    0.7350    1.3180   -0.7840 H   0  0  0  0  0  0  0  0  0  0  0  0
   -2.1820   -1.0520   -0.1160 H   0  0  0  0  0  0  0  0  0  0  0  0
   -0.9750   -0.5230    5.8950 H   0  0  0  0  0  0  0  0  0  0  0  0
   -2.0170   -1.1040    4.7120 H   0  0  0  0  0  0  0  0  0  0  0  0
    2.4130    1.5690    3.6760 H   0  0  0  0  0  0  0  0  0  0  0  0
  1  2  1  0  0  0  0
  1 20  1  0  0  0  0
  2  3  1  0  0  0  0
  2 21  1  0  0  0  0
  2 22  1  0  0  0  0
  3  4  1  0  0  0  0
  3  5  1  0  0  0  0
  3 23  1  0  0  0  0
  4  9  1  0  0  0  0
  5  6  1  0  0  0  0
  5  7  1  0  0  0  0
  5 24  1  0  0  0  0
  6 25  1  0  0  0  0
  7  8  1  0  0  0  0
  7  9  1  0  0  0  0
  7 26  1  0  0  0  0
  8 27  1  0  0  0  0
  9 10  1  0  0  0  0
  9 28  1  0  0  0  0
 10 11  1  0  0  0  0
 10 19  1  0  0  0  0
 11 12  2  0  0  0  0
 11 29  1  0  0  0  0
 12 13  1  0  0  0  0
 13 14  1  0  0  0  0
 13 19  2  0  0  0  0
 14 15  1  0  0  0  0
 14 16  2  0  0  0  0
 15 30  1  0  0  0  0
 15 31  1  0  0  0  0
 16 17  1  0  0  0  0
 17 18  2  0  0  0  0
 17 32  1  0  0  0  0
 18 19  1  0  0  0  0
M  END
> <OPENEYE_ISO_SMILES>
c1nc(c2c(n1)n(cn2)[C@H]3[C@@H]([C@@H]([C@H](O3)CO)O)O)N

> <OPENEYE_INCHI>
InChI=1S/C10H13N5O4/c11-8-5-9(13-2-12-8)15(3-14-5)10-7(18)6(17)4(1-16)19-10/h2-4,6-7,10,16-18H,1H2,(H2,11,12,13)/t4-,6-,7-,10-/m1/s1

> <OPENEYE_INCHIKEY>
OIRDTQYFTABQOQ-KQYNXXCUSA-N

> <FORMULA>
C10H13N5O4

$$$$
