U1D
  -OEChem-02242320043D

 30 31  0     0  0  0  0  0  0999 V2000
   -2.2210   -0.0460    0.0030 N   0  0  0  0  0  0  0  0  0  0  0  0
    1.2570   -1.3370    0.0410 C   0  0  0  0  0  0  0  0  0  0  0  0
    2.4680   -0.6700    0.0210 C   0  0  0  0  0  0  0  0  0  0  0  0
    3.8120   -1.3870    0.0340 C   0  0  0  0  0  0  0  0  0  0  0  0
    4.8960   -0.4110   -0.4260 C   0  0  0  0  0  0  0  0  0  0  0  0
    4.7890    0.8820    0.3880 C   0  0  0  0  0  0  0  0  0  0  0  0
    2.3520    0.6770   -0.0120 C   0  0  0  0  0  0  0  0  0  0  0  0
   -3.5570   -0.4670    0.0120 N   0  0  0  0  0  0  0  0  0  0  0  0
   -5.9880   -0.0100   -0.0090 C   0  0  0  0  0  0  0  0  0  0  0  0
   -4.2870    1.6270   -0.0520 O   0  0  0  0  0  0  0  0  0  0  0  0
   -4.5500    0.4430   -0.0180 C   0  0  0  0  0  0  0  0  0  0  0  0
   -1.2270   -0.9570    0.0280 C   0  0  0  0  0  0  0  0  0  0  0  0
    0.1710   -0.5170    0.0190 C   0  0  0  0  0  0  0  0  0  0  0  0
    3.5270    1.6370   -0.0400 C   0  0  0  0  0  0  0  0  0  0  0  0
   -1.4910   -2.1450    0.0570 O   0  0  0  0  0  0  0  0  0  0  0  0
    0.7130    1.1530   -0.0180 S   0  0  0  0  0  0  0  0  0  0  0  0
   -2.0100    0.9000   -0.0240 H   0  0  0  0  0  0  0  0  0  0  0  0
    1.1800   -2.4140    0.0680 H   0  0  0  0  0  0  0  0  0  0  0  0
    4.0340   -1.7290    1.0450 H   0  0  0  0  0  0  0  0  0  0  0  0
    3.7770   -2.2420   -0.6410 H   0  0  0  0  0  0  0  0  0  0  0  0
    5.8780   -0.8580   -0.2710 H   0  0  0  0  0  0  0  0  0  0  0  0
    4.7600   -0.1880   -1.4840 H   0  0  0  0  0  0  0  0  0  0  0  0
    4.7280    0.6410    1.4490 H   0  0  0  0  0  0  0  0  0  0  0  0
    5.6660    1.5020    0.2040 H   0  0  0  0  0  0  0  0  0  0  0  0
   -3.7670   -1.4140    0.0400 H   0  0  0  0  0  0  0  0  0  0  0  0
   -6.0260   -1.0980    0.0230 H   0  0  0  0  0  0  0  0  0  0  0  0
   -6.4910    0.3980    0.8680 H   0  0  0  0  0  0  0  0  0  0  0  0
   -6.4860    0.3450   -0.9110 H   0  0  0  0  0  0  0  0  0  0  0  0
    3.3430    2.4600    0.6500 H   0  0  0  0  0  0  0  0  0  0  0  0
    3.6580    2.0250   -1.0490 H   0  0  0  0  0  0  0  0  0  0  0  0
  9 11  1  0  0  0  0
 10 11  2  0  0  0  0
  8 11  1  0  0  0  0
  1  8  1  0  0  0  0
  1 12  1  0  0  0  0
 12 15  2  0  0  0  0
 12 13  1  0  0  0  0
  2 13  2  0  0  0  0
  2  3  1  0  0  0  0
  3  4  1  0  0  0  0
  4  5  1  0  0  0  0
  5  6  1  0  0  0  0
  6 14  1  0  0  0  0
  7 14  1  0  0  0  0
  3  7  2  0  0  0  0
  7 16  1  0  0  0  0
 13 16  1  0  0  0  0
  1 17  1  0  0  0  0
  2 18  1  0  0  0  0
  4 19  1  0  0  0  0
  4 20  1  0  0  0  0
  5 21  1  0  0  0  0
  5 22  1  0  0  0  0
  6 23  1  0  0  0  0
  6 24  1  0  0  0  0
  8 25  1  0  0  0  0
  9 26  1  0  0  0  0
  9 27  1  0  0  0  0
  9 28  1  0  0  0  0
 14 29  1  0  0  0  0
 14 30  1  0  0  0  0
M  END
> <OPENEYE_ISO_SMILES>
CC(=O)NNC(=O)c1cc2c(s1)CCCC2

> <OPENEYE_INCHI>
InChI=1S/C11H14N2O2S/c1-7(14)12-13-11(15)10-6-8-4-2-3-5-9(8)16-10/h6H,2-5H2,1H3,(H,12,14)(H,13,15)

> <OPENEYE_INCHIKEY>
DNSKRZJUSJXMPF-UHFFFAOYSA-N

> <FORMULA>
C11H14N2O2S

$$$$
