OG3
  -OEChem-02242320033D

 20 20  0     1  0  0  0  0  0999 V2000
    3.2190   -0.4100   -1.2200 C   0  0  0  0  0  0  0  0  0  0  0  0
    2.6490   -0.3250    0.1970 C   0  0  2  0  0  0  0  0  0  0  0  0
    1.1480   -0.2100    0.1300 C   0  0  0  0  0  0  0  0  0  0  0  0
    0.3600   -1.3250    0.3400 C   0  0  0  0  0  0  0  0  0  0  0  0
   -1.0170   -1.2200    0.2780 C   0  0  0  0  0  0  0  0  0  0  0  0
   -1.6060    0.0020    0.0050 C   0  0  0  0  0  0  0  0  0  0  0  0
   -0.8160    1.1180   -0.2050 C   0  0  0  0  0  0  0  0  0  0  0  0
    0.5610    1.0130   -0.1370 C   0  0  0  0  0  0  0  0  0  0  0  0
    3.2010    0.8550    0.8760 N   0  0  0  0  0  0  0  0  0  0  0  0
   -3.3350    0.1340   -0.0730 Cl  0  0  0  0  0  0  0  0  0  0  0  0
    2.8100   -1.2860   -1.7240 H   0  0  0  0  0  0  0  0  0  0  0  0
    2.9480    0.4880   -1.7750 H   0  0  0  0  0  0  0  0  0  0  0  0
    4.3050   -0.4940   -1.1710 H   0  0  0  0  0  0  0  0  0  0  0  0
    2.9200   -1.2230    0.7520 H   0  0  0  0  0  0  0  0  0  0  0  0
    0.8190   -2.2790    0.5520 H   0  0  0  0  0  0  0  0  0  0  0  0
   -1.6330   -2.0920    0.4420 H   0  0  0  0  0  0  0  0  0  0  0  0
   -1.2750    2.0730   -0.4140 H   0  0  0  0  0  0  0  0  0  0  0  0
    1.1780    1.8840   -0.3020 H   0  0  0  0  0  0  0  0  0  0  0  0
    4.2070    0.8010    0.9340 H   0  0  0  0  0  0  0  0  0  0  0  0
    2.9100    1.7050    0.4180 H   0  0  0  0  0  0  0  0  0  0  0  0
  7  8  2  0  0  0  0
  6  7  1  0  0  0  0
  6 10  1  0  0  0  0
  3  8  1  0  0  0  0
  5  6  2  0  0  0  0
  2  9  1  0  0  0  0
  2  3  1  0  0  0  0
  3  4  2  0  0  0  0
  4  5  1  0  0  0  0
  1  2  1  0  0  0  0
  1 11  1  0  0  0  0
  1 12  1  0  0  0  0
  1 13  1  0  0  0  0
  2 14  1  0  0  0  0
  4 15  1  0  0  0  0
  5 16  1  0  0  0  0
  7 17  1  0  0  0  0
  8 18  1  0  0  0  0
  9 19  1  0  0  0  0
  9 20  1  0  0  0  0
M  END
> <OPENEYE_ISO_SMILES>
C[C@H](c1ccc(cc1)Cl)N

> <OPENEYE_INCHI>
InChI=1S/C8H10ClN/c1-6(10)7-2-4-8(9)5-3-7/h2-6H,10H2,1H3/t6-/m1/s1

> <OPENEYE_INCHIKEY>
PINPOEWMCLFRRB-ZCFIWIBFSA-N

> <FORMULA>
C8H10ClN

$$$$
