QJC
  -OEChem-02242320033D

 31 32  0     1  0  0  0  0  0999 V2000
   -0.6960    0.1620   -0.2730 C   0  0  0  0  0  0  0  0  0  0  0  0
   -2.7060    0.8710   -1.6340 C   0  0  0  0  0  0  0  0  0  0  0  0
    3.5830    1.1900    0.3720 C   0  0  0  0  0  0  0  0  0  0  0  0
    2.4980    0.4020    0.8270 C   0  0  0  0  0  0  0  0  0  0  0  0
   -2.8480    0.7850    0.8580 C   0  0  0  0  0  0  0  0  0  0  0  0
   -2.2370    0.1540   -0.3660 C   0  0  2  0  0  0  0  0  0  0  0  0
   -2.5730   -1.3590   -0.4350 C   0  0  0  0  0  0  0  0  0  0  0  0
   -1.4890   -1.9610    0.4950 C   0  0  0  0  0  0  0  0  0  0  0  0
    0.9880   -1.5510    0.4460 C   0  0  0  0  0  0  0  0  0  0  0  0
    2.1150   -0.6740    0.0430 C   0  0  0  0  0  0  0  0  0  0  0  0
    2.8310   -0.9110   -1.1530 C   0  0  0  0  0  0  0  0  0  0  0  0
   -4.0980    0.7730   -1.7360 F   0  0  0  0  0  0  0  0  0  0  0  0
   -0.2830   -1.1520    0.2410 N   0  0  0  0  0  0  0  0  0  0  0  0
    3.8190   -0.1330   -1.4950 N   0  0  0  0  0  0  0  0  0  0  0  0
    4.1910    0.8690   -0.7850 N   0  0  0  0  0  0  0  0  0  0  0  0
   -3.5350    0.1240    1.6000 O   0  0  0  0  0  0  0  0  0  0  0  0
    3.9600    2.1530    1.0200 O   0  0  0  0  0  0  0  0  0  0  0  0
    1.2100   -2.6280    0.9610 O   0  0  0  0  0  0  0  0  0  0  0  0
   -2.6280    2.0820    1.1260 O   0  0  0  0  0  0  0  0  0  0  0  0
   -0.2660    0.3250   -1.2620 H   0  0  0  0  0  0  0  0  0  0  0  0
   -0.3680    0.9470    0.4080 H   0  0  0  0  0  0  0  0  0  0  0  0
   -2.4190    1.9210   -1.5850 H   0  0  0  0  0  0  0  0  0  0  0  0
   -2.2440    0.4080   -2.5050 H   0  0  0  0  0  0  0  0  0  0  0  0
    1.9880    0.6320    1.7510 H   0  0  0  0  0  0  0  0  0  0  0  0
   -3.5730   -1.5550   -0.0470 H   0  0  0  0  0  0  0  0  0  0  0  0
   -2.4700   -1.7360   -1.4520 H   0  0  0  0  0  0  0  0  0  0  0  0
   -1.7930   -1.8720    1.5380 H   0  0  0  0  0  0  0  0  0  0  0  0
   -1.3080   -3.0050    0.2400 H   0  0  0  0  0  0  0  0  0  0  0  0
    2.5570   -1.7420   -1.7870 H   0  0  0  0  0  0  0  0  0  0  0  0
    4.9340    1.4120   -1.0920 H   0  0  0  0  0  0  0  0  0  0  0  0
   -3.0410    2.4420    1.9220 H   0  0  0  0  0  0  0  0  0  0  0  0
  5 16  2  0  0  0  0
  7  8  1  0  0  0  0
  8 13  1  0  0  0  0
 11 14  2  0  0  0  0
 14 15  1  0  0  0  0
 10 11  1  0  0  0  0
  4 10  2  0  0  0  0
  3  4  1  0  0  0  0
  3 17  2  0  0  0  0
  9 10  1  0  0  0  0
  9 18  2  0  0  0  0
  9 13  1  0  0  0  0
  1 13  1  0  0  0  0
  6  7  1  0  0  0  0
  2  6  1  0  0  0  0
  2 12  1  0  0  0  0
  5  6  1  0  0  0  0
  5 19  1  0  0  0  0
  1  6  1  0  0  0  0
  3 15  1  0  0  0  0
  1 20  1  0  0  0  0
  1 21  1  0  0  0  0
  2 22  1  0  0  0  0
  2 23  1  0  0  0  0
  4 24  1  0  0  0  0
  7 25  1  0  0  0  0
  7 26  1  0  0  0  0
  8 27  1  0  0  0  0
  8 28  1  0  0  0  0
 11 29  1  0  0  0  0
 15 30  1  0  0  0  0
 19 31  1  0  0  0  0
M  END
> <OPENEYE_ISO_SMILES>
c1c(cn[nH]c1=O)C(=O)N2CC[C@@](C2)(CF)C(=O)O

> <OPENEYE_INCHI>
InChI=1S/C11H12FN3O4/c12-5-11(10(18)19)1-2-15(6-11)9(17)7-3-8(16)14-13-4-7/h3-4H,1-2,5-6H2,(H,14,16)(H,18,19)/t11-/m0/s1

> <OPENEYE_INCHIKEY>
JUCHDTFOJXKPLJ-NSHDSACASA-N

> <FORMULA>
C11H12FN3O4

$$$$
