QZG
  -OEChem-02242320033D

 72 73  0     1  0  0  0  0  0999 V2000
   -1.4730   -0.9240   -0.1990 C   0  0  0  0  0  0  0  0  0  0  0  0
    0.9480   -1.1320   -0.0090 C   0  0  1  0  0  0  0  0  0  0  0  0
    1.1660   -2.4230    0.7810 C   0  0  0  0  0  0  0  0  0  0  0  0
    2.4350   -2.2960    1.6270 C   0  0  0  0  0  0  0  0  0  0  0  0
    2.2290   -1.2220    2.6970 C   0  0  0  0  0  0  0  0  0  0  0  0
    2.7370   -3.6360    2.2990 C   0  0  0  0  0  0  0  0  0  0  0  0
    2.1040   -0.9180   -0.9520 C   0  0  0  0  0  0  0  0  0  0  0  0
    4.3270   -0.0470   -1.4390 C   0  0  1  0  0  0  0  0  0  0  0  0
    5.1920    1.0750   -0.8590 C   0  0  0  0  0  0  0  0  0  0  0  0
    4.3600    2.3540   -0.7490 C   0  0  1  0  0  0  0  0  0  0  0  0
    3.2610    2.1840    0.2760 C   0  0  0  0  0  0  0  0  0  0  0  0
    4.9190    3.4320    1.3190 C   0  0  0  0  0  0  0  0  0  0  0  0
    5.2210    3.5130   -0.1940 C   0  0  0  0  0  0  0  0  0  0  0  0
    5.1900   -1.2900   -1.6660 C   0  0  0  0  0  0  0  0  0  0  0  0
   -3.8330   -0.5770   -0.2410 C   0  0  0  0  0  0  0  0  0  0  0  0
   -4.0550    0.9340   -0.3280 C   0  0  0  0  0  0  0  0  0  0  0  0
   -5.3510    1.3020    0.3970 C   0  0  0  0  0  0  0  0  0  0  0  0
   -6.5270    0.5760   -0.2600 C   0  0  0  0  0  0  0  0  0  0  0  0
   -7.8230    0.9430    0.4650 C   0  0  0  0  0  0  0  0  0  0  0  0
   -8.0450    2.4540    0.3780 C   0  0  0  0  0  0  0  0  0  0  0  0
   -8.9980    0.2170   -0.1920 C   0  0  0  0  0  0  0  0  0  0  0  0
   -6.3050   -0.9360   -0.1730 C   0  0  0  0  0  0  0  0  0  0  0  0
   -5.0090   -1.3040   -0.8980 C   0  0  0  0  0  0  0  0  0  0  0  0
   -0.2960   -1.2340   -0.7770 N   0  0  0  0  0  0  0  0  0  0  0  0
    3.2480   -0.3660   -0.5010 N   0  0  0  0  0  0  0  0  0  0  0  0
    3.5980    2.8020    1.4220 N   0  0  0  0  0  0  0  0  0  0  0  0
   -1.5130   -0.6390    0.9820 O   0  0  0  0  0  0  0  0  0  0  0  0
    2.2260    1.5790    0.0920 O   0  0  0  0  0  0  0  0  0  0  0  0
    5.8420   -1.6460   -0.4450 O   0  0  0  0  0  0  0  0  0  0  0  0
    2.0060   -1.2440   -2.1160 O   0  0  0  0  0  0  0  0  0  0  0  0
   -2.6030   -0.9260   -0.9290 O   0  0  0  0  0  0  0  0  0  0  0  0
    0.8810   -0.2900    0.6800 H   0  0  0  0  0  0  0  0  0  0  0  0
    0.3110   -2.5990    1.4340 H   0  0  0  0  0  0  0  0  0  0  0  0
    1.2730   -3.2590    0.0900 H   0  0  0  0  0  0  0  0  0  0  0  0
    3.2710   -2.0140    0.9870 H   0  0  0  0  0  0  0  0  0  0  0  0
    1.4230   -1.5260    3.3660 H   0  0  0  0  0  0  0  0  0  0  0  0
    3.1480   -1.0980    3.2690 H   0  0  0  0  0  0  0  0  0  0  0  0
    1.9680   -0.2780    2.2200 H   0  0  0  0  0  0  0  0  0  0  0  0
    2.8840   -4.4010    1.5370 H   0  0  0  0  0  0  0  0  0  0  0  0
    3.6410   -3.5450    2.9020 H   0  0  0  0  0  0  0  0  0  0  0  0
    1.9000   -3.9180    2.9400 H   0  0  0  0  0  0  0  0  0  0  0  0
    3.9000    0.2770   -2.3880 H   0  0  0  0  0  0  0  0  0  0  0  0
    5.5470    0.7860    0.1300 H   0  0  0  0  0  0  0  0  0  0  0  0
    6.0450    1.2510   -1.5140 H   0  0  0  0  0  0  0  0  0  0  0  0
    3.9400    2.6190   -1.7190 H   0  0  0  0  0  0  0  0  0  0  0  0
    5.6690    2.8210    1.8210 H   0  0  0  0  0  0  0  0  0  0  0  0
    4.8950    4.4320    1.7520 H   0  0  0  0  0  0  0  0  0  0  0  0
    6.2790    3.3410   -0.3900 H   0  0  0  0  0  0  0  0  0  0  0  0
    4.8990    4.4690   -0.6050 H   0  0  0  0  0  0  0  0  0  0  0  0
    4.5580   -2.1160   -1.9940 H   0  0  0  0  0  0  0  0  0  0  0  0
    5.9380   -1.0790   -2.4290 H   0  0  0  0  0  0  0  0  0  0  0  0
   -3.7610   -0.8740    0.8050 H   0  0  0  0  0  0  0  0  0  0  0  0
   -3.2180    1.4520    0.1400 H   0  0  0  0  0  0  0  0  0  0  0  0
   -4.1270    1.2320   -1.3740 H   0  0  0  0  0  0  0  0  0  0  0  0
   -5.2790    1.0050    1.4430 H   0  0  0  0  0  0  0  0  0  0  0  0
   -5.5090    2.3790    0.3350 H   0  0  0  0  0  0  0  0  0  0  0  0
   -6.5990    0.8730   -1.3060 H   0  0  0  0  0  0  0  0  0  0  0  0
   -7.7510    0.6460    1.5110 H   0  0  0  0  0  0  0  0  0  0  0  0
   -8.1170    2.7520   -0.6680 H   0  0  0  0  0  0  0  0  0  0  0  0
   -8.9680    2.7170    0.8950 H   0  0  0  0  0  0  0  0  0  0  0  0
   -7.2070    2.9720    0.8460 H   0  0  0  0  0  0  0  0  0  0  0  0
   -9.0700    0.5140   -1.2380 H   0  0  0  0  0  0  0  0  0  0  0  0
   -8.8400   -0.8600   -0.1300 H   0  0  0  0  0  0  0  0  0  0  0  0
   -9.9220    0.4790    0.3240 H   0  0  0  0  0  0  0  0  0  0  0  0
   -6.2330   -1.2330    0.8730 H   0  0  0  0  0  0  0  0  0  0  0  0
   -7.1420   -1.4530   -0.6410 H   0  0  0  0  0  0  0  0  0  0  0  0
   -5.0810   -1.0060   -1.9440 H   0  0  0  0  0  0  0  0  0  0  0  0
   -4.8510   -2.3800   -0.8360 H   0  0  0  0  0  0  0  0  0  0  0  0
   -0.2710   -1.5240   -1.7030 H   0  0  0  0  0  0  0  0  0  0  0  0
    3.3560   -0.1790    0.4450 H   0  0  0  0  0  0  0  0  0  0  0  0
    3.0390    2.8280    2.2140 H   0  0  0  0  0  0  0  0  0  0  0  0
    6.4070   -2.4280   -0.5150 H   0  0  0  0  0  0  0  0  0  0  0  0
 12 13  1  0  0  0  0
 12 26  1  0  0  0  0
 10 13  1  0  0  0  0
 14 29  1  0  0  0  0
  7 30  2  0  0  0  0
 19 20  1  0  0  0  0
 11 26  1  0  0  0  0
  8 14  1  0  0  0  0
  8  9  1  0  0  0  0
  8 25  1  0  0  0  0
  9 10  1  0  0  0  0
 10 11  1  0  0  0  0
 16 17  1  0  0  0  0
 15 16  1  0  0  0  0
 17 18  1  0  0  0  0
 11 28  2  0  0  0  0
  7 25  1  0  0  0  0
  2  7  1  0  0  0  0
 18 19  1  0  0  0  0
 18 22  1  0  0  0  0
 19 21  1  0  0  0  0
 15 31  1  0  0  0  0
  1 31  1  0  0  0  0
  1 24  1  0  0  0  0
  2 24  1  0  0  0  0
 15 23  1  0  0  0  0
  1 27  2  0  0  0  0
  2  3  1  0  0  0  0
  3  4  1  0  0  0  0
 22 23  1  0  0  0  0
  4  5  1  0  0  0  0
  4  6  1  0  0  0  0
  2 32  1  0  0  0  0
  3 33  1  0  0  0  0
  3 34  1  0  0  0  0
  4 35  1  0  0  0  0
  5 36  1  0  0  0  0
  5 37  1  0  0  0  0
  5 38  1  0  0  0  0
  6 39  1  0  0  0  0
  6 40  1  0  0  0  0
  6 41  1  0  0  0  0
  8 42  1  0  0  0  0
  9 43  1  0  0  0  0
  9 44  1  0  0  0  0
 10 45  1  0  0  0  0
 12 46  1  0  0  0  0
 12 47  1  0  0  0  0
 13 48  1  0  0  0  0
 13 49  1  0  0  0  0
 14 50  1  0  0  0  0
 14 51  1  0  0  0  0
 15 52  1  0  0  0  0
 16 53  1  0  0  0  0
 16 54  1  0  0  0  0
 17 55  1  0  0  0  0
 17 56  1  0  0  0  0
 18 57  1  0  0  0  0
 19 58  1  0  0  0  0
 20 59  1  0  0  0  0
 20 60  1  0  0  0  0
 20 61  1  0  0  0  0
 21 62  1  0  0  0  0
 21 63  1  0  0  0  0
 21 64  1  0  0  0  0
 22 65  1  0  0  0  0
 22 66  1  0  0  0  0
 23 67  1  0  0  0  0
 23 68  1  0  0  0  0
 24 69  1  0  0  0  0
 25 70  1  0  0  0  0
 26 71  1  0  0  0  0
 29 72  1  0  0  0  0
M  END
> <OPENEYE_ISO_SMILES>
CC(C)C[C@@H](C(=O)N[C@@H](C[C@@H]1CCNC1=O)CO)NC(=O)OC2CCC(CC2)C(C)C

> <OPENEYE_INCHI>
InChI=1S/C23H41N3O5/c1-14(2)11-20(22(29)25-18(13-27)12-17-9-10-24-21(17)28)26-23(30)31-19-7-5-16(6-8-19)15(3)4/h14-20,27H,5-13H2,1-4H3,(H,24,28)(H,25,29)(H,26,30)/t16-,17-,18-,19-,20-/m0/s1

> <OPENEYE_INCHIKEY>
SPCFKQMKRNNPLF-HVTWWXFQSA-N

> <FORMULA>
C23H41N3O5

$$$$
