@<TRIPOS>MOLECULE
/home/pku/3cl/gett_pdb/5SRN/5SRN_mol2/ligand/5SRN_RBO.pdb
 38 41 0 0 0
SMALL
GASTEIGER

@<TRIPOS>ATOM
      1  C18      -44.2200  -29.2590    6.2120 C.ar  201  RBO201      0.1204
      2  C16      -46.5270  -29.1880    6.2480 C.ar  201  RBO201      0.1442
      3  C14      -48.8800  -28.8200    3.4750 C.ar  201  RBO201     -0.0518
      4  C13      -50.2610  -28.7850    3.5810 C.ar  201  RBO201     -0.0611
      5  C12      -50.8660  -28.9000    4.8190 C.ar  201  RBO201     -0.0598
      6  C11      -50.0730  -29.0430    5.9410 C.ar  201  RBO201     -0.0377
      7  C10      -48.6760  -29.0740    5.8270 C.ar  201  RBO201      0.0487
      8  C20      -46.1620  -29.1220    1.8400 C.3   201  RBO201      0.0371
      9  C02      -43.3250  -32.3880    2.1250 C.2   201  RBO201      0.0896
     10  C03      -44.3340  -31.5170    1.3820 C.3   201  RBO201      0.0238
     11  C04      -43.8350  -30.1150    1.0370 C.3   201  RBO201      0.0802
     12  C05      -43.8140  -29.2420    2.2920 C.3   201  RBO201      0.0402
     13  C07      -45.3480  -29.0190    4.1930 C.ar  201  RBO201      0.1345
     14  C08      -46.6110  -29.0390    4.8640 C.ar  201  RBO201      0.0663
     15  C09      -48.0400  -28.9650    4.6010 C.ar  201  RBO201      0.0123
     16  C21      -45.7560  -28.8160    0.4070 C.3   201  RBO201      0.0638
     17  N06      -45.1120  -28.8630    2.7540 N.pl3 201  RBO201     -0.3099
     18  N15      -47.7490  -29.2040    6.7700 N.ar  201  RBO201     -0.3389
     19  N17      -45.3470  -29.2940    6.8770 N.ar  201  RBO201     -0.2178
     20  N19      -44.2340  -29.1130    4.9100 N.ar  201  RBO201     -0.2200
     21  O01      -43.2740  -33.6210    1.8800 O.co2 201  RBO201     -0.8475
     22  O22      -44.6320  -29.5770   -0.0190 O.3   201  RBO201     -0.3731
     23  O23      -42.5570  -31.8890    2.9880 O.co2 201  RBO201     -0.3089
     24 H181      -43.2680  -29.3430    6.7240 H     201  RBO201      0.1048
     25 H141      -48.4750  -28.7250    2.4860 H     201  RBO201      0.0624
     26 H131      -50.8650  -28.6680    2.6890 H     201  RBO201      0.0618
     27 H121      -51.9440  -28.8720    4.9050 H     201  RBO201      0.0618
     28 H111      -50.5310  -29.1330    6.9140 H     201  RBO201      0.0638
     29 H201      -46.6390  -30.1030    1.9670 H     201  RBO201      0.0487
     30 H202      -46.8670  -28.3740    2.0530 H     201  RBO201      0.0487
     31 H031      -44.5670  -31.9960    0.4510 H     201  RBO201      0.0358
     32 H032      -45.2410  -31.4620    1.9650 H     201  RBO201      0.0358
     33 H041      -42.8320  -30.2100    0.6580 H     201  RBO201      0.0615
     34 H051      -43.2580  -28.3510    2.0670 H     201  RBO201      0.0490
     35 H052      -43.2700  -29.7580    3.0600 H     201  RBO201      0.0490
     36 H212      -46.6040  -29.0060   -0.2460 H     201  RBO201      0.0575
     37 H211      -45.5240  -27.7500    0.3390 H     201  RBO201      0.0575
     38 H151      -47.9400  -29.3040    7.7430 H     201  RBO201      0.1673
@<TRIPOS>UNITY_ATOM_ATTR
21 1
charge -1
@<TRIPOS>BOND
     1    36    16    1
     2    22    16    1
     3    22    11    1
     4    37    16    1
     5    16     8    1
     6    31    10    1
     7    33    11    1
     8    11    10    1
     9    11    12    1
    10    10    32    1
    11    10     9    1
    12     8    29    1
    13     8    30    1
    14     8    17    1
    15    21     9   ar
    16    34    12    1
    17     9    23   ar
    18    12    17    1
    19    12    35    1
    20    25     3    1
    21    26     4    1
    22    17    13    1
    23     3     4   ar
    24     3    15   ar
    25     4     5   ar
    26    13    14   ar
    27    13    20   ar
    28    15    14   ar
    29    15     7   ar
    30     5    27    1
    31     5     6   ar
    32    14     2   ar
    33    20     1   ar
    34     7     6   ar
    35     7    18   ar
    36     6    28    1
    37     1    24    1
    38     1    19   ar
    39     2    18   ar
    40     2    19   ar
    41    18    38    1
