U0M
  -OEChem-02242320043D

 26 27  0     1  0  0  0  0  0999 V2000
    3.5850    0.1920    0.7280 C   0  0  0  0  0  0  0  0  0  0  0  0
    1.5190    0.5690   -0.5680 C   0  0  0  0  0  0  0  0  0  0  0  0
   -4.5270    0.8750    0.9290 C   0  0  0  0  0  0  0  0  0  0  0  0
   -3.2520    0.4510    0.2470 C   0  0  0  0  0  0  0  0  0  0  0  0
   -1.2080   -0.5250   -0.5980 C   0  0  0  0  0  0  0  0  0  0  0  0
    0.0320   -1.3030   -0.9560 C   0  0  0  0  0  0  0  0  0  0  0  0
    2.3420   -1.6860   -0.3140 C   0  0  0  0  0  0  0  0  0  0  0  0
    3.3690   -1.2950    0.7520 C   0  0  0  0  0  0  0  0  0  0  0  0
    2.7620    1.0150    0.1450 C   0  0  0  0  0  0  0  0  0  0  0  0
    3.0410    2.3370    0.1850 F   0  0  0  0  0  0  0  0  0  0  0  0
   -2.6810    1.0690   -0.7370 N   0  0  0  0  0  0  0  0  0  0  0  0
   -1.6120    0.5590   -1.1790 N   0  0  0  0  0  0  0  0  0  0  0  0
    1.1690   -0.8010   -0.1720 N   0  0  1  0  0  0  0  0  0  0  0  0
   -2.3130   -0.9230    0.6470 S   0  0  0  0  0  0  0  0  0  0  0  0
    4.4590    0.5950    1.2180 H   0  0  0  0  0  0  0  0  0  0  0  0
    0.6970    1.2390   -0.3150 H   0  0  0  0  0  0  0  0  0  0  0  0
    1.6900    0.5980   -1.6450 H   0  0  0  0  0  0  0  0  0  0  0  0
   -4.2910    1.5420    1.7580 H   0  0  0  0  0  0  0  0  0  0  0  0
   -5.1660    1.3940    0.2150 H   0  0  0  0  0  0  0  0  0  0  0  0
   -5.0460   -0.0060    1.3080 H   0  0  0  0  0  0  0  0  0  0  0  0
   -0.1240   -2.3590   -0.7330 H   0  0  0  0  0  0  0  0  0  0  0  0
    0.2430   -1.1840   -2.0180 H   0  0  0  0  0  0  0  0  0  0  0  0
    2.7740   -1.5650   -1.3080 H   0  0  0  0  0  0  0  0  0  0  0  0
    2.0390   -2.7230   -0.1700 H   0  0  0  0  0  0  0  0  0  0  0  0
    4.3130   -1.8020    0.5500 H   0  0  0  0  0  0  0  0  0  0  0  0
    3.0020   -1.5920    1.7350 H   0  0  0  0  0  0  0  0  0  0  0  0
  3  4  1  0  0  0  0
  4 11  2  0  0  0  0
 11 12  1  0  0  0  0
  5 12  2  0  0  0  0
  6 13  1  0  0  0  0
  7 13  1  0  0  0  0
  7  8  1  0  0  0  0
  1  8  1  0  0  0  0
  1  9  2  0  0  0  0
  9 10  1  0  0  0  0
  2  9  1  0  0  0  0
  5  6  1  0  0  0  0
  5 14  1  0  0  0  0
  4 14  1  0  0  0  0
  2 13  1  0  0  0  0
  1 15  1  0  0  0  0
  2 16  1  0  0  0  0
  2 17  1  0  0  0  0
  3 18  1  0  0  0  0
  3 19  1  0  0  0  0
  3 20  1  0  0  0  0
  6 21  1  0  0  0  0
  6 22  1  0  0  0  0
  7 23  1  0  0  0  0
  7 24  1  0  0  0  0
  8 25  1  0  0  0  0
  8 26  1  0  0  0  0
M  END
> <OPENEYE_ISO_SMILES>
Cc1nnc(s1)C[N@]2CCC=C(C2)F

> <OPENEYE_INCHI>
InChI=1S/C9H12FN3S/c1-7-11-12-9(14-7)6-13-4-2-3-8(10)5-13/h3H,2,4-6H2,1H3

> <OPENEYE_INCHIKEY>
WRJUIVWNZADJJL-UHFFFAOYSA-N

> <FORMULA>
C9H12FN3S

$$$$
