LJR
  -OEChem-02242320033D

 29 29  0     0  0  0  0  0  0999 V2000
    2.9930   -0.1110    0.5730 N   0  0  0  0  0  0  0  0  0  0  0  0
   -2.0460   -1.5080    0.2160 C   0  0  0  0  0  0  0  0  0  0  0  0
   -3.4110   -1.1380   -0.3680 C   0  0  0  0  0  0  0  0  0  0  0  0
   -3.8630    0.2060    0.2060 C   0  0  0  0  0  0  0  0  0  0  0  0
   -2.8430    1.2860   -0.1600 C   0  0  0  0  0  0  0  0  0  0  0  0
   -1.4770    0.9160    0.4240 C   0  0  0  0  0  0  0  0  0  0  0  0
    3.5710   -1.4020    0.1910 C   0  0  0  0  0  0  0  0  0  0  0  0
    1.5810    0.4020   -0.1220 S   0  0  0  0  0  0  0  0  0  0  0  0
    1.3420    1.6740    0.4650 O   0  0  0  0  0  0  0  0  0  0  0  0
    1.8100    0.2720   -1.5190 O   0  0  0  0  0  0  0  0  0  0  0  0
    0.3400   -0.7990    0.4330 C   0  0  0  0  0  0  0  0  0  0  0  0
   -1.0250   -0.4290   -0.1500 C   0  0  0  0  0  0  0  0  0  0  0  0
    3.4360    0.4410    1.2370 H   0  0  0  0  0  0  0  0  0  0  0  0
   -2.1220   -1.5840    1.3000 H   0  0  0  0  0  0  0  0  0  0  0  0
   -1.7240   -2.4660   -0.1930 H   0  0  0  0  0  0  0  0  0  0  0  0
   -3.3340   -1.0630   -1.4530 H   0  0  0  0  0  0  0  0  0  0  0  0
   -4.1380   -1.9080   -0.1080 H   0  0  0  0  0  0  0  0  0  0  0  0
   -4.8360    0.4700   -0.2100 H   0  0  0  0  0  0  0  0  0  0  0  0
   -3.9400    0.1310    1.2900 H   0  0  0  0  0  0  0  0  0  0  0  0
   -2.7660    1.3610   -1.2450 H   0  0  0  0  0  0  0  0  0  0  0  0
   -3.1650    2.2430    0.2490 H   0  0  0  0  0  0  0  0  0  0  0  0
   -0.7510    1.6850    0.1630 H   0  0  0  0  0  0  0  0  0  0  0  0
   -1.5540    0.8410    1.5080 H   0  0  0  0  0  0  0  0  0  0  0  0
    3.7890   -1.4000   -0.8770 H   0  0  0  0  0  0  0  0  0  0  0  0
    4.4930   -1.5670    0.7500 H   0  0  0  0  0  0  0  0  0  0  0  0
    2.8620   -2.1980    0.4160 H   0  0  0  0  0  0  0  0  0  0  0  0
    0.6220   -1.7960    0.0950 H   0  0  0  0  0  0  0  0  0  0  0  0
    0.2850   -0.7870    1.5220 H   0  0  0  0  0  0  0  0  0  0  0  0
   -0.9480   -0.3540   -1.2350 H   0  0  0  0  0  0  0  0  0  0  0  0
  1  7  1  0  0  0  0
  1  8  1  0  0  0  0
  8 11  1  0  0  0  0
 11 12  1  0  0  0  0
  2 12  1  0  0  0  0
  2  3  1  0  0  0  0
  8  9  2  0  0  0  0
  8 10  2  0  0  0  0
  6 12  1  0  0  0  0
  3  4  1  0  0  0  0
  5  6  1  0  0  0  0
  4  5  1  0  0  0  0
  1 13  1  0  0  0  0
  2 14  1  0  0  0  0
  2 15  1  0  0  0  0
  3 16  1  0  0  0  0
  3 17  1  0  0  0  0
  4 18  1  0  0  0  0
  4 19  1  0  0  0  0
  5 20  1  0  0  0  0
  5 21  1  0  0  0  0
  6 22  1  0  0  0  0
  6 23  1  0  0  0  0
  7 24  1  0  0  0  0
  7 25  1  0  0  0  0
  7 26  1  0  0  0  0
 11 27  1  0  0  0  0
 11 28  1  0  0  0  0
 12 29  1  0  0  0  0
M  END
> <OPENEYE_ISO_SMILES>
CNS(=O)(=O)CC1CCCCC1

> <OPENEYE_INCHI>
InChI=1S/C8H17NO2S/c1-9-12(10,11)7-8-5-3-2-4-6-8/h8-9H,2-7H2,1H3

> <OPENEYE_INCHIKEY>
PFWYRMPHHJKJBB-UHFFFAOYSA-N

> <FORMULA>
C8H17NO2S

$$$$
