ISN
  -OEChem-02242320023D

 16 17  0     0  0  0  0  0  0999 V2000
   -0.5550   -0.0030    0.2970 C   0  0  0  0  0  0  0  0  0  0  0  0
   -1.3720   -0.0030    1.4280 C   0  0  0  0  0  0  0  0  0  0  0  0
   -0.8000   -0.0010    2.6840 C   0  0  0  0  0  0  0  0  0  0  0  0
    0.5770    0.0010    2.8190 C   0  0  0  0  0  0  0  0  0  0  0  0
    1.3950    0.0020    1.7050 C   0  0  0  0  0  0  0  0  0  0  0  0
    1.4330    0.0000   -0.8280 N   0  0  0  0  0  0  0  0  0  0  0  0
    0.8420    0.0000    0.4320 C   0  0  0  0  0  0  0  0  0  0  0  0
   -0.8390    0.0010   -1.1490 C   0  0  0  0  0  0  0  0  0  0  0  0
    0.5090   -0.0020   -1.8050 C   0  0  0  0  0  0  0  0  0  0  0  0
   -1.9250    0.0040   -1.6900 O   0  0  0  0  0  0  0  0  0  0  0  0
    0.7260   -0.0020   -2.9980 O   0  0  0  0  0  0  0  0  0  0  0  0
   -2.4460   -0.0060    1.3210 H   0  0  0  0  0  0  0  0  0  0  0  0
   -1.4290   -0.0020    3.5620 H   0  0  0  0  0  0  0  0  0  0  0  0
    1.0170    0.0030    3.8060 H   0  0  0  0  0  0  0  0  0  0  0  0
    2.4690    0.0050    1.8260 H   0  0  0  0  0  0  0  0  0  0  0  0
    2.3910    0.0020   -0.9830 H   0  0  0  0  0  0  0  0  0  0  0  0
  1  2  2  0  0  0  0
  1  7  1  0  0  0  0
  1  8  1  0  0  0  0
  2  3  1  0  0  0  0
  2 12  1  0  0  0  0
  3  4  2  0  0  0  0
  3 13  1  0  0  0  0
  4  5  1  0  0  0  0
  4 14  1  0  0  0  0
  5  7  2  0  0  0  0
  5 15  1  0  0  0  0
  6  7  1  0  0  0  0
  6  9  1  0  0  0  0
  6 16  1  0  0  0  0
  8  9  1  0  0  0  0
  8 10  2  0  0  0  0
  9 11  2  0  0  0  0
M  END
> <OPENEYE_ISO_SMILES>
c1ccc2c(c1)C(=O)C(=O)N2

> <OPENEYE_INCHI>
InChI=1S/C8H5NO2/c10-7-5-3-1-2-4-6(5)9-8(7)11/h1-4H,(H,9,10,11)

> <OPENEYE_INCHIKEY>
JXDYKVIHCLTXOP-UHFFFAOYSA-N

> <FORMULA>
C8H5NO2

$$$$
