T1X
  -OEChem-02242320043D

 76 80  0     1  0  0  0  0  0999 V2000
    4.7330    1.7710   -0.7550 N   0  0  0  0  0  0  0  0  0  0  0  0
    5.8960    2.3100   -0.3420 C   0  0  0  0  0  0  0  0  0  0  0  0
    6.2790    3.6660   -0.2520 C   0  0  0  0  0  0  0  0  0  0  0  0
    5.4110    4.6360   -0.6130 F   0  0  0  0  0  0  0  0  0  0  0  0
    7.5310    4.0020    0.2030 C   0  0  0  0  0  0  0  0  0  0  0  0
    8.4350    3.0180    0.5780 C   0  0  0  0  0  0  0  0  0  0  0  0
    8.0830    1.6910    0.4980 C   0  0  0  0  0  0  0  0  0  0  0  0
    6.8170    1.3290    0.0400 C   0  0  0  0  0  0  0  0  0  0  0  0
    6.0580   -0.2450   -0.1830 S   0  0  0  0  0  0  0  0  0  0  0  0
    4.6280    0.4970   -0.7460 C   0  0  0  0  0  0  0  0  0  0  0  0
    3.3960   -0.2560   -1.1770 C   0  0  1  0  0  0  0  0  0  0  0  0
    3.7750   -1.3530   -2.0110 O   0  0  0  0  0  0  0  0  0  0  0  0
    2.6620   -0.7830    0.0580 C   0  0  2  0  0  0  0  0  0  0  0  0
    3.5380   -1.8160    0.7690 C   0  0  0  0  0  0  0  0  0  0  0  0
    2.9110   -2.1740    2.1180 C   0  0  2  0  0  0  0  0  0  0  0  0
    3.7440   -3.2650    2.8300 C   0  0  0  0  0  0  0  0  0  0  0  0
    3.0210   -4.5550    2.3840 C   0  0  0  0  0  0  0  0  0  0  0  0
    1.6450   -4.1470    2.0780 N   0  0  0  0  0  0  0  0  0  0  0  0
    1.5550   -2.8150    1.9180 C   0  0  0  0  0  0  0  0  0  0  0  0
    0.5360   -2.2140    1.6520 O   0  0  0  0  0  0  0  0  0  0  0  0
    1.4040   -1.4110   -0.3530 N   0  0  0  0  0  0  0  0  0  0  0  0
    0.2390   -0.7490   -0.2020 C   0  0  0  0  0  0  0  0  0  0  0  0
    0.2210    0.3230    0.3640 O   0  0  0  0  0  0  0  0  0  0  0  0
   -1.0390   -1.3420   -0.7370 C   0  0  2  0  0  0  0  0  0  0  0  0
   -0.9180   -1.5350   -2.2500 C   0  0  0  0  0  0  0  0  0  0  0  0
   -2.1650   -2.2500   -2.7740 C   0  0  0  0  0  0  0  0  0  0  0  0
   -2.1020   -2.3330   -4.3000 C   0  0  0  0  0  0  0  0  0  0  0  0
   -2.2270   -3.6630   -2.1880 C   0  0  0  0  0  0  0  0  0  0  0  0
   -2.1550   -0.4370   -0.4480 N   0  0  0  0  0  0  0  0  0  0  0  0
   -3.4090   -0.9210   -0.3570 C   0  0  0  0  0  0  0  0  0  0  0  0
   -3.6150   -2.1100   -0.5130 O   0  0  0  0  0  0  0  0  0  0  0  0
   -4.5280   -0.0140   -0.0670 C   0  0  0  0  0  0  0  0  0  0  0  0
   -4.4230    1.3500    0.1300 N   0  0  0  0  0  0  0  0  0  0  0  0
   -5.8320   -0.3810    0.0440 C   0  0  0  0  0  0  0  0  0  0  0  0
   -6.5850    0.7830    0.3260 C   0  0  0  0  0  0  0  0  0  0  0  0
   -5.6780    1.8590    0.3760 C   0  0  0  0  0  0  0  0  0  0  0  0
   -6.1500    3.1430    0.6410 C   0  0  0  0  0  0  0  0  0  0  0  0
   -5.2870    4.1820    0.6900 F   0  0  0  0  0  0  0  0  0  0  0  0
   -7.4960    3.3540    0.8520 C   0  0  0  0  0  0  0  0  0  0  0  0
   -8.3950    2.2980    0.8040 C   0  0  0  0  0  0  0  0  0  0  0  0
   -7.9540    1.0160    0.5440 C   0  0  0  0  0  0  0  0  0  0  0  0
   -8.8380   -0.0140    0.4990 O   0  0  0  0  0  0  0  0  0  0  0  0
  -10.2120    0.3000    0.7310 C   0  0  0  0  0  0  0  0  0  0  0  0
    7.8150    5.0420    0.2680 H   0  0  0  0  0  0  0  0  0  0  0  0
    9.4170    3.2950    0.9340 H   0  0  0  0  0  0  0  0  0  0  0  0
    8.7880    0.9270    0.7900 H   0  0  0  0  0  0  0  0  0  0  0  0
    2.7380    0.4120   -1.7330 H   0  0  0  0  0  0  0  0  0  0  0  0
    4.3620   -1.9890   -1.5800 H   0  0  0  0  0  0  0  0  0  0  0  0
    2.4510    0.0430    0.7360 H   0  0  0  0  0  0  0  0  0  0  0  0
    3.6150   -2.7130    0.1550 H   0  0  0  0  0  0  0  0  0  0  0  0
    4.5330   -1.3990    0.9300 H   0  0  0  0  0  0  0  0  0  0  0  0
    2.8250   -1.2870    2.7460 H   0  0  0  0  0  0  0  0  0  0  0  0
    4.7770   -3.2570    2.4810 H   0  0  0  0  0  0  0  0  0  0  0  0
    3.7000   -3.1460    3.9120 H   0  0  0  0  0  0  0  0  0  0  0  0
    3.4980   -4.9680    1.4950 H   0  0  0  0  0  0  0  0  0  0  0  0
    3.0260   -5.2880    3.1910 H   0  0  0  0  0  0  0  0  0  0  0  0
    0.8960   -4.7590    2.0010 H   0  0  0  0  0  0  0  0  0  0  0  0
    1.4080   -2.3030   -0.7340 H   0  0  0  0  0  0  0  0  0  0  0  0
   -1.2200   -2.3050   -0.2610 H   0  0  0  0  0  0  0  0  0  0  0  0
   -0.8260   -0.5630   -2.7340 H   0  0  0  0  0  0  0  0  0  0  0  0
   -0.0350   -2.1360   -2.4700 H   0  0  0  0  0  0  0  0  0  0  0  0
   -3.0540   -1.6940   -2.4770 H   0  0  0  0  0  0  0  0  0  0  0  0
   -1.2120   -2.8890   -4.5970 H   0  0  0  0  0  0  0  0  0  0  0  0
   -2.9900   -2.8420   -4.6740 H   0  0  0  0  0  0  0  0  0  0  0  0
   -2.0570   -1.3270   -4.7170 H   0  0  0  0  0  0  0  0  0  0  0  0
   -2.2720   -3.6030   -1.1010 H   0  0  0  0  0  0  0  0  0  0  0  0
   -3.1150   -4.1720   -2.5620 H   0  0  0  0  0  0  0  0  0  0  0  0
   -1.3380   -4.2180   -2.4860 H   0  0  0  0  0  0  0  0  0  0  0  0
   -1.9900    0.5110   -0.3230 H   0  0  0  0  0  0  0  0  0  0  0  0
   -3.6010    1.8650    0.1000 H   0  0  0  0  0  0  0  0  0  0  0  0
   -6.2230   -1.3820   -0.0640 H   0  0  0  0  0  0  0  0  0  0  0  0
   -7.8540    4.3520    1.0560 H   0  0  0  0  0  0  0  0  0  0  0  0
   -9.4460    2.4800    0.9720 H   0  0  0  0  0  0  0  0  0  0  0  0
  -10.3230    0.7370    1.7240 H   0  0  0  0  0  0  0  0  0  0  0  0
  -10.5540    1.0120   -0.0200 H   0  0  0  0  0  0  0  0  0  0  0  0
  -10.8090   -0.6100    0.6670 H   0  0  0  0  0  0  0  0  0  0  0  0
 42 43  1  0  0  0  0
 39 40  2  0  0  0  0
 40 41  1  0  0  0  0
 37 39  1  0  0  0  0
 41 42  1  0  0  0  0
 35 41  2  0  0  0  0
 37 38  1  0  0  0  0
 36 37  2  0  0  0  0
 35 36  1  0  0  0  0
 34 35  1  0  0  0  0
 33 36  1  0  0  0  0
 32 34  2  0  0  0  0
 32 33  1  0  0  0  0
 30 32  1  0  0  0  0
 16 17  1  0  0  0  0
 17 18  1  0  0  0  0
 29 30  1  0  0  0  0
 30 31  2  0  0  0  0
 24 29  1  0  0  0  0
 22 23  2  0  0  0  0
 15 16  1  0  0  0  0
 18 19  1  0  0  0  0
  3  4  1  0  0  0  0
 22 24  1  0  0  0  0
 21 22  1  0  0  0  0
 24 25  1  0  0  0  0
 15 19  1  0  0  0  0
 14 15  1  0  0  0  0
 19 20  2  0  0  0  0
  3  5  2  0  0  0  0
  2  3  1  0  0  0  0
  5  6  1  0  0  0  0
 25 26  1  0  0  0  0
 26 28  1  0  0  0  0
 26 27  1  0  0  0  0
 13 21  1  0  0  0  0
  1  2  1  0  0  0  0
  2  8  2  0  0  0  0
 13 14  1  0  0  0  0
 11 13  1  0  0  0  0
  1 10  2  0  0  0  0
  6  7  2  0  0  0  0
  7  8  1  0  0  0  0
  8  9  1  0  0  0  0
 10 11  1  0  0  0  0
  9 10  1  0  0  0  0
 11 12  1  0  0  0  0
  5 44  1  0  0  0  0
  6 45  1  0  0  0  0
  7 46  1  0  0  0  0
 11 47  1  0  0  0  0
 12 48  1  0  0  0  0
 13 49  1  0  0  0  0
 14 50  1  0  0  0  0
 14 51  1  0  0  0  0
 15 52  1  0  0  0  0
 16 53  1  0  0  0  0
 16 54  1  0  0  0  0
 17 55  1  0  0  0  0
 17 56  1  0  0  0  0
 18 57  1  0  0  0  0
 21 58  1  0  0  0  0
 24 59  1  0  0  0  0
 25 60  1  0  0  0  0
 25 61  1  0  0  0  0
 26 62  1  0  0  0  0
 27 63  1  0  0  0  0
 27 64  1  0  0  0  0
 27 65  1  0  0  0  0
 28 66  1  0  0  0  0
 28 67  1  0  0  0  0
 28 68  1  0  0  0  0
 29 69  1  0  0  0  0
 33 70  1  0  0  0  0
 34 71  1  0  0  0  0
 39 72  1  0  0  0  0
 40 73  1  0  0  0  0
 43 74  1  0  0  0  0
 43 75  1  0  0  0  0
 43 76  1  0  0  0  0
M  END
> <OPENEYE_ISO_SMILES>
CC(C)C[C@@H](C(=O)N[C@@H](C[C@@H]1CCNC1=O)[C@@H](c2nc3c(cccc3s2)F)O)NC(=O)c4cc5c(ccc(c5[nH]4)F)OC

> <OPENEYE_INCHI>
InChI=1S/C30H33F2N5O5S/c1-14(2)11-20(36-29(41)21-13-16-22(42-3)8-7-18(32)24(16)34-21)28(40)35-19(12-15-9-10-33-27(15)39)26(38)30-37-25-17(31)5-4-6-23(25)43-30/h4-8,13-15,19-20,26,34,38H,9-12H2,1-3H3,(H,33,39)(H,35,40)(H,36,41)/t15-,19-,20-,26-/m0/s1

> <OPENEYE_INCHIKEY>
UCQMGGDLMJSQEJ-LHXIGDLBSA-N

> <FORMULA>
C30H33F2N5O5S

$$$$
