@<TRIPOS>MOLECULE
/home/pku/3cl/gett_pdb/7RVU/7RVU_mol2/ligand/7RVU_7XT.pdb
 38 39 0 0 0
SMALL
GASTEIGER

@<TRIPOS>ATOM
      1  C1        21.5780  -23.4830  -19.4400 C.ar  401  7XT401     -0.0000
      2  C10       16.1860  -18.4700  -18.4640 C.3   401  7XT401      0.0270
      3  C11       17.4790  -17.7840  -17.9920 C.3   401  7XT401      0.1515
      4  C12       17.2460  -16.5510  -17.1220 C.2   401  7XT401      0.2596
      5  C13       15.0230  -17.4870  -18.6360 C.3   401  7XT401      0.0022
      6  C14       17.7780  -14.1750  -16.7820 C.3   401  7XT401      0.1728
      7  C15       16.4650  -13.4920  -16.9700 C.2   401  7XT401      0.2612
      8  C16       15.8150  -19.7010  -17.6390 C.3   401  7XT401      0.0022
      9  C17       14.5360  -12.3420  -16.0780 C.3   401  7XT401      0.1287
     10  C19       13.5450  -13.0840  -15.1690 C.3   401  7XT401      0.0339
     11  C2        21.3410  -23.9520  -18.1520 C.ar  401  7XT401     -0.0002
     12  C20       13.5900  -14.5850  -15.3330 C.3   401  7XT401      0.0861
     13  C21       12.7920  -14.9440  -16.5850 C.3   401  7XT401      0.0534
     14  C22       11.7890  -15.9920  -16.1020 C.2   401  7XT401      0.0627
     15  C23       20.3430  -13.4080  -15.2040 C.3   401  7XT401      0.0001
     16  C24       12.8750  -15.2320  -14.1780 C.2   401  7XT401      0.2453
     17  C27       14.4420  -10.8980  -15.6330 C.3   401  7XT401      0.2036
     18  C3        21.0690  -23.0710  -17.1120 C.ar  401  7XT401     -0.0007
     19  C30       18.1060  -17.2980  -19.2900 C.3   401  7XT401      0.0312
     20  C34       18.8670  -13.2060  -17.2450 C.3   401  7XT401      0.0311
     21  C35       20.2940  -13.4010  -16.7200 C.3   401  7XT401      0.0021
     22  C36       20.8960  -14.6830  -17.2570 C.3   401  7XT401      0.0001
     23  C37       21.1940  -12.2590  -17.1910 C.3   401  7XT401      0.0001
     24  C4        21.0360  -21.7170  -17.3730 C.ar  401  7XT401      0.0213
     25  C5        21.2750  -21.2550  -18.6620 C.ar  401  7XT401     -0.0007
     26  C6        21.5490  -22.1230  -19.7070 C.ar  401  7XT401     -0.0002
     27  C7        20.7260  -20.7190  -16.2850 C.3   401  7XT401      0.2368
     28  C9        19.6200  -18.4810  -17.0670 C.2   401  7XT401      0.4218
     29  N10       18.3460  -18.7730  -17.3600 N.am  401  7XT401     -0.1633
     30  N13       17.7320  -15.3840  -17.5890 N.am  401  7XT401     -0.1964
     31  N16       15.9030  -12.8440  -15.9590 N.am  401  7XT401     -0.2030
     32  N23       11.9630  -16.0740  -14.6570 N.am  401  7XT401     -0.1826
     33  O26       13.0950  -14.9920  -12.9790 O.2   401  7XT401     -0.2730
     34  O28       13.0240  -10.6400  -15.5930 O.3   401  7XT401     -0.2185
     35  O29       19.9890  -17.3460  -16.9120 O.2   401  7XT401     -0.2245
     36  O33       16.6580  -16.6210  -16.0540 O.2   401  7XT401     -0.2715
     37  O38       15.9460  -13.5280  -18.0630 O.2   401  7XT401     -0.2715
     38  O8        20.7090  -19.4570  -16.9600 O.3   401  7XT401     -0.4285
@<TRIPOS>BOND
     1    26     1   ar
     2    26    25   ar
     3     1    11   ar
     4    19     3    1
     5    25    24   ar
     6     5     2    1
     7     2     3    1
     8     2     8    1
     9    11    18   ar
    10    37     7    2
    11     3    29    1
    12     3     4    1
    13    30     4   am
    14    30     6    1
    15    24    18   ar
    16    24    27    1
    17    29    28   am
    18    22    21    1
    19    20     6    1
    20    20    21    1
    21    23    21    1
    22     4    36    2
    23    28    38    1
    24    28    35    2
    25     7     6    1
    26     7    31   am
    27    38    27    1
    28    21    15    1
    29    13    14    1
    30    13    12    1
    31    14    32    2
    32     9    31    1
    33     9    17    1
    34     9    10    1
    35    17    34    1
    36    12    10    1
    37    12    16    1
    38    32    16    1
    39    16    33    2
