QR0
  -OEChem-02242320033D

 46 49  0     1  0  0  0  0  0999 V2000
   -3.7180   -0.6940   -0.3090 C   0  0  0  0  0  0  0  0  0  0  0  0
   -2.2880    0.2670    1.3600 C   0  0  0  0  0  0  0  0  0  0  0  0
   -3.5510    0.0440    0.8600 C   0  0  0  0  0  0  0  0  0  0  0  0
   -1.1730   -0.2480    0.6920 C   0  0  0  0  0  0  0  0  0  0  0  0
    0.1820   -0.0100    1.2250 C   0  0  0  0  0  0  0  0  0  0  0  0
    2.6020   -0.2710    1.1100 C   0  0  2  0  0  0  0  0  0  0  0  0
    3.2770    0.8500    0.3480 C   0  0  0  0  0  0  0  0  0  0  0  0
    2.7860    2.0770   -0.0650 C   0  0  0  0  0  0  0  0  0  0  0  0
    3.0260   -2.2930   -0.3180 C   0  0  0  0  0  0  0  0  0  0  0  0
    3.4940   -1.5090    0.8820 C   0  0  1  0  0  0  0  0  0  0  0  0
    4.8770   -0.8770    0.6190 C   0  0  0  0  0  0  0  0  0  0  0  0
    4.5840    0.5010    0.0660 C   0  0  0  0  0  0  0  0  0  0  0  0
    5.3990    1.3840   -0.6320 C   0  0  0  0  0  0  0  0  0  0  0  0
    4.9030    2.6110   -1.0430 C   0  0  0  0  0  0  0  0  0  0  0  0
    3.5960    2.9550   -0.7600 C   0  0  0  0  0  0  0  0  0  0  0  0
   -5.8690    1.3150   -0.2200 C   0  0  0  0  0  0  0  0  0  0  0  0
   -7.1060    1.8250   -0.0680 C   0  0  0  0  0  0  0  0  0  0  0  0
   -7.3490   -0.2550   -0.5870 C   0  0  0  0  0  0  0  0  0  0  0  0
   -2.6090   -1.2070   -0.9760 C   0  0  0  0  0  0  0  0  0  0  0  0
   -1.3440   -0.9870   -0.4810 C   0  0  0  0  0  0  0  0  0  0  0  0
    1.2560   -0.5070    0.5810 N   0  0  0  0  0  0  0  0  0  0  0  0
   -4.9960   -0.9220   -0.8080 N   0  0  0  0  0  0  0  0  0  0  0  0
   -6.0230   -0.0040   -0.5520 N   0  0  0  0  0  0  0  0  0  0  0  0
   -7.9910    0.8440   -0.3010 N   0  0  0  0  0  0  0  0  0  0  0  0
    3.3850   -1.9730   -1.4260 O   0  0  0  0  0  0  0  0  0  0  0  0
    6.6850    1.0440   -0.9100 O   0  0  0  0  0  0  0  0  0  0  0  0
    0.3290    0.6340    2.2460 O   0  0  0  0  0  0  0  0  0  0  0  0
    2.2110   -3.3470   -0.1540 O   0  0  0  0  0  0  0  0  0  0  0  0
   -2.1590    0.8390    2.2670 H   0  0  0  0  0  0  0  0  0  0  0  0
   -4.4130    0.4410    1.3750 H   0  0  0  0  0  0  0  0  0  0  0  0
    2.5530   -0.0300    2.1720 H   0  0  0  0  0  0  0  0  0  0  0  0
    1.7640    2.3490    0.1550 H   0  0  0  0  0  0  0  0  0  0  0  0
    3.5160   -2.1400    1.7700 H   0  0  0  0  0  0  0  0  0  0  0  0
    5.4410   -0.8000    1.5480 H   0  0  0  0  0  0  0  0  0  0  0  0
    5.4310   -1.4690   -0.1100 H   0  0  0  0  0  0  0  0  0  0  0  0
    5.5370    3.2970   -1.5850 H   0  0  0  0  0  0  0  0  0  0  0  0
    3.2070    3.9100   -1.0800 H   0  0  0  0  0  0  0  0  0  0  0  0
   -4.9350    1.8450   -0.1070 H   0  0  0  0  0  0  0  0  0  0  0  0
   -7.3440    2.8450    0.1950 H   0  0  0  0  0  0  0  0  0  0  0  0
   -7.8040   -1.2070   -0.8180 H   0  0  0  0  0  0  0  0  0  0  0  0
   -2.7420   -1.7790   -1.8830 H   0  0  0  0  0  0  0  0  0  0  0  0
   -0.4840   -1.3860   -1.0000 H   0  0  0  0  0  0  0  0  0  0  0  0
    1.1390   -1.0200   -0.2340 H   0  0  0  0  0  0  0  0  0  0  0  0
   -5.1760   -1.7170   -1.3340 H   0  0  0  0  0  0  0  0  0  0  0  0
    6.7970    0.5840   -1.7530 H   0  0  0  0  0  0  0  0  0  0  0  0
    1.9380   -3.8180   -0.9530 H   0  0  0  0  0  0  0  0  0  0  0  0
  9 25  2  0  0  0  0
 10 11  1  0  0  0  0
 11 12  1  0  0  0  0
 12 13  2  0  0  0  0
 13 26  1  0  0  0  0
 13 14  1  0  0  0  0
 14 15  2  0  0  0  0
  8 15  1  0  0  0  0
  7  8  2  0  0  0  0
  6  7  1  0  0  0  0
  6 21  1  0  0  0  0
  5 21  1  0  0  0  0
  2  4  2  0  0  0  0
  2  3  1  0  0  0  0
  1  3  2  0  0  0  0
 22 23  1  0  0  0  0
 16 23  1  0  0  0  0
 16 17  2  0  0  0  0
 17 24  1  0  0  0  0
 18 24  2  0  0  0  0
  1 22  1  0  0  0  0
  1 19  1  0  0  0  0
 19 20  2  0  0  0  0
  4  5  1  0  0  0  0
  5 27  2  0  0  0  0
  9 10  1  0  0  0  0
  9 28  1  0  0  0  0
  6 10  1  0  0  0  0
  7 12  1  0  0  0  0
  4 20  1  0  0  0  0
 18 23  1  0  0  0  0
  2 29  1  0  0  0  0
  3 30  1  0  0  0  0
  6 31  1  0  0  0  0
  8 32  1  0  0  0  0
 10 33  1  0  0  0  0
 11 34  1  0  0  0  0
 11 35  1  0  0  0  0
 14 36  1  0  0  0  0
 15 37  1  0  0  0  0
 16 38  1  0  0  0  0
 17 39  1  0  0  0  0
 18 40  1  0  0  0  0
 19 41  1  0  0  0  0
 20 42  1  0  0  0  0
 21 43  1  0  0  0  0
 22 44  1  0  0  0  0
 26 45  1  0  0  0  0
 28 46  1  0  0  0  0
M  END
> <OPENEYE_ISO_SMILES>
c1cc2c(c(c1)O)C[C@@H]([C@@H]2NC(=O)c3ccc(cc3)Nn4ccnc4)C(=O)O

> <OPENEYE_INCHI>
InChI=1S/C20H18N4O4/c25-17-3-1-2-14-15(17)10-16(20(27)28)18(14)22-19(26)12-4-6-13(7-5-12)23-24-9-8-21-11-24/h1-9,11,16,18,23,25H,10H2,(H,22,26)(H,27,28)/t16-,18+/m0/s1

> <OPENEYE_INCHIKEY>
YYYJOMDAFKUPDC-FUHWJXTLSA-N

> <FORMULA>
C20H18N4O4

$$$$
