W7S
  -OEChem-02242320043D

 27 28  0     0  0  0  0  0  0999 V2000
   -3.1090   -0.0730   -1.1980 C   0  0  0  0  0  0  0  0  0  0  0  0
    3.2560    1.9260   -0.0030 C   0  0  0  0  0  0  0  0  0  0  0  0
    1.1140   -1.0300   -0.0020 C   0  0  0  0  0  0  0  0  0  0  0  0
   -1.3040   -1.3330   -0.0060 C   0  0  0  0  0  0  0  0  0  0  0  0
   -2.5420   -0.4740   -0.0020 C   0  0  0  0  0  0  0  0  0  0  0  0
   -3.1110   -0.0870    1.1960 C   0  0  0  0  0  0  0  0  0  0  0  0
   -4.2470    0.7010    1.2000 C   0  0  0  0  0  0  0  0  0  0  0  0
   -4.8140    1.1020    0.0050 C   0  0  0  0  0  0  0  0  0  0  0  0
   -4.2410    0.7210   -1.1940 C   0  0  0  0  0  0  0  0  0  0  0  0
    2.3160   -0.1640    0.0040 C   0  0  0  0  0  0  0  0  0  0  0  0
    3.5880   -0.7340    0.0020 C   0  0  0  0  0  0  0  0  0  0  0  0
    4.5210    1.3560    0.0050 C   0  0  0  0  0  0  0  0  0  0  0  0
   -0.1150   -0.4770   -0.0000 N   0  0  0  0  0  0  0  0  0  0  0  0
    4.6570    0.0420    0.0070 N   0  0  0  0  0  0  0  0  0  0  0  0
    2.1840    1.1590   -0.0030 N   0  0  0  0  0  0  0  0  0  0  0  0
    1.2360   -2.2390   -0.0090 O   0  0  0  0  0  0  0  0  0  0  0  0
   -2.6640   -0.3750   -2.1340 H   0  0  0  0  0  0  0  0  0  0  0  0
    3.1490    3.0010   -0.0040 H   0  0  0  0  0  0  0  0  0  0  0  0
   -1.2990   -1.9680    0.8800 H   0  0  0  0  0  0  0  0  0  0  0  0
   -1.2980   -1.9570   -0.9000 H   0  0  0  0  0  0  0  0  0  0  0  0
   -2.6680   -0.4000    2.1300 H   0  0  0  0  0  0  0  0  0  0  0  0
   -4.6910    1.0030    2.1370 H   0  0  0  0  0  0  0  0  0  0  0  0
   -5.7010    1.7170    0.0080 H   0  0  0  0  0  0  0  0  0  0  0  0
   -4.6840    1.0340   -2.1280 H   0  0  0  0  0  0  0  0  0  0  0  0
    3.6990   -1.8090   -0.0040 H   0  0  0  0  0  0  0  0  0  0  0  0
    5.3970    1.9880    0.0090 H   0  0  0  0  0  0  0  0  0  0  0  0
   -0.2130    0.4880    0.0060 H   0  0  0  0  0  0  0  0  0  0  0  0
  8  9  2  0  0  0  0
  1  9  1  0  0  0  0
  7  8  1  0  0  0  0
  1  5  2  0  0  0  0
  6  7  2  0  0  0  0
  5  6  1  0  0  0  0
  4  5  1  0  0  0  0
  4 13  1  0  0  0  0
  3 16  2  0  0  0  0
  3 13  1  0  0  0  0
  3 10  1  0  0  0  0
 10 11  2  0  0  0  0
 10 15  1  0  0  0  0
 11 14  1  0  0  0  0
  2 15  2  0  0  0  0
 12 14  2  0  0  0  0
  2 12  1  0  0  0  0
  1 17  1  0  0  0  0
  2 18  1  0  0  0  0
  4 19  1  0  0  0  0
  4 20  1  0  0  0  0
  6 21  1  0  0  0  0
  7 22  1  0  0  0  0
  8 23  1  0  0  0  0
  9 24  1  0  0  0  0
 11 25  1  0  0  0  0
 12 26  1  0  0  0  0
 13 27  1  0  0  0  0
M  END
> <OPENEYE_ISO_SMILES>
c1ccc(cc1)CNC(=O)c2cnccn2

> <OPENEYE_INCHI>
InChI=1S/C12H11N3O/c16-12(11-9-13-6-7-14-11)15-8-10-4-2-1-3-5-10/h1-7,9H,8H2,(H,15,16)

> <OPENEYE_INCHIKEY>
LCEYIUAAVRLLIN-UHFFFAOYSA-N

> <FORMULA>
C12H11N3O

$$$$
