@<TRIPOS>MOLECULE
/home/pku/3cl/gett_pdb/5SS2/5SS2_mol2/ligand/5SS2_RK0.pdb
 37 38 0 0 0
SMALL
GASTEIGER

@<TRIPOS>ATOM
      1  C18      -44.8180  -26.6320   -0.2440 C.ar  201  RK0201     -0.0330
      2  C16      -43.1160  -27.5960    1.1020 C.ar  201  RK0201     -0.0390
      3  C17      -43.5230  -26.6230    0.2210 C.ar  201  RK0201     -0.0558
      4  C15      -43.9870  -28.5710    1.5050 C.ar  201  RK0201      0.0493
      5  C20      -45.6970  -27.6140    0.1650 C.ar  201  RK0201      0.0565
      6  C19      -45.2880  -25.5670   -1.2150 C.3   201  RK0201     -0.0385
      7  C01      -51.3060  -29.4990    6.4230 C.3   201  RK0201      0.0125
      8  C02      -49.9910  -29.6870    5.6810 C.2   201  RK0201      0.2155
      9  C05      -47.4930  -29.6700    5.7330 C.ar  201  RK0201      0.1664
     10  C07      -45.1870  -29.8280    5.5760 C.ar  201  RK0201      0.0742
     11  C08      -43.7460  -29.7330    6.0440 C.3   201  RK0201     -0.0198
     12  C09      -45.6300  -30.2340    4.3030 C.ar  201  RK0201      0.1697
     13  C21      -47.1260  -27.6300   -0.3560 C.1   201  RK0201      0.0995
     14  C23      -45.2880  -28.5890    1.0460 C.ar  201  RK0201     -0.0217
     15  N04      -48.7500  -29.4530    6.3790 N.am  201  RK0201     -0.2649
     16  N06      -46.3160  -29.5020    6.4210 N.ar  201  RK0201     -0.2278
     17  N14      -43.4990  -29.5400    2.4330 N.pl3 201  RK0201     -0.2157
     18  N22      -48.1830  -27.6400   -0.7460 N.1   201  RK0201     -0.1909
     19  O03      -49.9870  -30.0060    4.5420 O.2   201  RK0201     -0.2757
     20  O12      -45.3560  -31.3700    1.9360 O.2   201  RK0201     -0.1494
     21  O13      -43.6760  -31.8490    3.4900 O.2   201  RK0201     -0.1494
     22  S10      -47.2340  -30.1910    4.2190 S.2   201  RK0201     -0.0317
     23  S11      -44.5180  -30.7720    2.9870 S.O2  201  RK0201      0.0805
     24 H161      -42.1060  -27.6010    1.4770 H     201  RK0201      0.0637
     25 H171      -42.8350  -25.8550   -0.0960 H     201  RK0201      0.0621
     26 H191      -46.1200  -25.0230   -0.7740 H     201  RK0201      0.0278
     27 H192      -44.4760  -24.8830   -1.4080 H     201  RK0201      0.0278
     28 H193      -45.6010  -26.0430   -2.1360 H     201  RK0201      0.0278
     29 H012      -51.9860  -30.2990    6.1370 H     201  RK0201      0.0323
     30 H013      -51.7350  -28.5450    6.1630 H     201  RK0201      0.0323
     31 H011      -51.1330  -29.5440    7.4990 H     201  RK0201      0.0323
     32 H081      -43.2080  -30.6250    5.7510 H     201  RK0201      0.0293
     33 H083      -43.7530  -29.6430    7.1240 H     201  RK0201      0.0293
     34 H082      -43.2790  -28.8510    5.6160 H     201  RK0201      0.0293
     35 H231      -45.9840  -29.3490    1.3680 H     201  RK0201      0.0649
     36 H041      -48.7430  -29.1950    7.3430 H     201  RK0201      0.1567
     37 H141      -42.5410  -29.4800    2.7480 H     201  RK0201      0.1737
@<TRIPOS>BOND
     1    28     6    1
     2    27     6    1
     3     6    26    1
     4     6     1    1
     5    18    13    3
     6    13     5    1
     7     1     5   ar
     8     1     3   ar
     9    25     3    1
    10     5    14   ar
    11     3     2   ar
    12    14    35    1
    13    14     4   ar
    14     2    24    1
    15     2     4   ar
    16     4    17    1
    17    20    23    2
    18    17    37    1
    19    17    23    1
    20    23    21    2
    21    23    12    1
    22    22    12   ar
    23    22     9   ar
    24    12    10   ar
    25    19     8    2
    26    10    11    1
    27    10    16   ar
    28    34    11    1
    29     8    15   am
    30     8     7    1
    31     9    15    1
    32     9    16   ar
    33    32    11    1
    34    11    33    1
    35    29     7    1
    36    30     7    1
    37    15    36    1
    38     7    31    1
