@<TRIPOS>MOLECULE
/home/pku/3cl/gett_pdb/5RTX/5RTX_mol2/ligand/5RTX_6OT.pdb
 17 17 0 0 0
SMALL
GASTEIGER

@<TRIPOS>ATOM
      1  N12      -46.8750  -29.5370    3.7060 N.3   201  6OT201     -0.2035
      2  C01      -50.5820  -32.3330    6.2200 C.ar  201  6OT201      0.0442
      3  C02      -50.3550  -33.3500    5.3330 C.ar  201  6OT201     -0.0249
      4  C03      -49.3790  -33.2100    4.3850 C.ar  201  6OT201      0.0442
      5  C04      -48.6250  -32.0710    4.2680 C.ar  201  6OT201     -0.0169
      6  C05      -48.8590  -31.0620    5.1550 C.ar  201  6OT201      0.1078
      7  C06      -49.8430  -31.1650    6.1280 C.ar  201  6OT201     -0.0169
      8 CL7       -51.8310  -32.5220    7.4540 Cl    201  6OT201     -0.0834
      9 CL8       -49.0770  -34.5470    3.2970 Cl    201  6OT201     -0.0834
     10  S09      -47.9120  -29.5250    5.0390 S.O2  201  6OT201      0.0560
     11  O10      -48.9490  -28.5150    4.9380 O.2   201  6OT201     -0.1533
     12  O11      -47.2500  -29.2500    6.3150 O.2   201  6OT201     -0.1533
     13 H121      -46.0340  -29.6800    3.8170 H     201  6OT201      0.1442
     14 H122      -47.1910  -29.4230    2.9140 H     201  6OT201      0.1442
     15 H021      -50.8340  -34.1440    5.3980 H     201  6OT201      0.0647
     16 H041      -47.9660  -31.9950    3.6160 H     201  6OT201      0.0652
     17 H061      -49.9980  -30.4620    6.7170 H     201  6OT201      0.0652
@<TRIPOS>BOND
     1    14     1    1
     2     9     4    1
     3    16     5    1
     4     1    13    1
     5     1    10    1
     6     5     4   ar
     7     5     6   ar
     8     4     3   ar
     9    11    10    2
    10    10     6    1
    11    10    12    2
    12     6     7   ar
    13     3    15    1
    14     3     2   ar
    15     7     2   ar
    16     7    17    1
    17     2     8    1
