I2N
  -OEChem-02242320023D

 54 58  0     0  0  0  0  0  0999 V2000
    4.3270    0.7630    0.0870 C   0  0  0  0  0  0  0  0  0  0  0  0
    5.7180    1.0300   -0.3560 C   0  0  0  0  0  0  0  0  0  0  0  0
    6.1660    2.1710   -0.9430 C   0  0  0  0  0  0  0  0  0  0  0  0
    7.8270    0.7560   -0.7420 C   0  0  0  0  0  0  0  0  0  0  0  0
    3.3390    1.7300   -0.0910 C   0  0  0  0  0  0  0  0  0  0  0  0
    2.0460    1.4760    0.3160 C   0  0  0  0  0  0  0  0  0  0  0  0
   -0.5600    0.8930    1.0480 C   0  0  0  0  0  0  0  0  0  0  0  0
   -1.9930    0.5630    1.3780 C   0  0  0  0  0  0  0  0  0  0  0  0
   -2.8760    1.7250    1.0020 C   0  0  0  0  0  0  0  0  0  0  0  0
   -3.2190    2.6640    1.9260 C   0  0  0  0  0  0  0  0  0  0  0  0
   -4.4740    3.8930    0.4160 C   0  0  0  0  0  0  0  0  0  0  0  0
   -4.1850    2.9790   -0.6100 C   0  0  0  0  0  0  0  0  0  0  0  0
   -3.3570    1.8640   -0.3130 C   0  0  0  0  0  0  0  0  0  0  0  0
   -3.0470    0.9440   -1.3240 C   0  0  0  0  0  0  0  0  0  0  0  0
   -3.5440    1.1330   -2.5780 C   0  0  0  0  0  0  0  0  0  0  0  0
   -4.3560    2.2270   -2.8720 C   0  0  0  0  0  0  0  0  0  0  0  0
   -4.6770    3.1410   -1.9140 C   0  0  0  0  0  0  0  0  0  0  0  0
    0.5830   -3.0390    0.3820 C   0  0  0  0  0  0  0  0  0  0  0  0
    0.1670   -4.0120   -0.5100 C   0  0  0  0  0  0  0  0  0  0  0  0
   -1.1850   -4.2300   -0.7140 C   0  0  0  0  0  0  0  0  0  0  0  0
   -2.1180   -3.4750   -0.0270 C   0  0  0  0  0  0  0  0  0  0  0  0
   -1.7000   -2.5030    0.8650 C   0  0  0  0  0  0  0  0  0  0  0  0
   -0.3510   -2.2850    1.0690 C   0  0  0  0  0  0  0  0  0  0  0  0
    0.1030   -1.2300    2.0440 C   0  0  0  0  0  0  0  0  0  0  0  0
    1.7280    0.2580    0.9050 C   0  0  0  0  0  0  0  0  0  0  0  0
    2.7120   -0.7070    1.0840 C   0  0  0  0  0  0  0  0  0  0  0  0
    4.0060   -0.4580    0.6770 C   0  0  0  0  0  0  0  0  0  0  0  0
    1.0790   -4.7480   -1.1810 F   0  0  0  0  0  0  0  0  0  0  0  0
    0.4160    0.0040    1.3180 N   0  0  0  0  0  0  0  0  0  0  0  0
    7.5000    1.9900   -1.1840 N   0  0  0  0  0  0  0  0  0  0  0  0
    6.7640    0.1880   -0.2440 N   0  0  0  0  0  0  0  0  0  0  0  0
   -3.9900    3.6990    1.6200 N   0  0  0  0  0  0  0  0  0  0  0  0
   -0.2850    1.9600    0.5400 O   0  0  0  0  0  0  0  0  0  0  0  0
   -3.8130   -3.7470   -0.2830 Cl  0  0  0  0  0  0  0  0  0  0  0  0
    5.5820    3.0490   -1.1740 H   0  0  0  0  0  0  0  0  0  0  0  0
    8.8110    0.3130   -0.7890 H   0  0  0  0  0  0  0  0  0  0  0  0
    3.5860    2.6770   -0.5480 H   0  0  0  0  0  0  0  0  0  0  0  0
    1.2810    2.2250    0.1780 H   0  0  0  0  0  0  0  0  0  0  0  0
   -2.2990   -0.3220    0.8200 H   0  0  0  0  0  0  0  0  0  0  0  0
   -2.0840    0.3680    2.4470 H   0  0  0  0  0  0  0  0  0  0  0  0
   -2.8530    2.5630    2.9370 H   0  0  0  0  0  0  0  0  0  0  0  0
   -5.0930    4.7540    0.2140 H   0  0  0  0  0  0  0  0  0  0  0  0
   -2.4180    0.0920   -1.1110 H   0  0  0  0  0  0  0  0  0  0  0  0
   -3.3050    0.4250   -3.3580 H   0  0  0  0  0  0  0  0  0  0  0  0
   -4.7360    2.3530   -3.8750 H   0  0  0  0  0  0  0  0  0  0  0  0
   -5.3080    3.9830   -2.1560 H   0  0  0  0  0  0  0  0  0  0  0  0
    1.6370   -2.8710    0.5460 H   0  0  0  0  0  0  0  0  0  0  0  0
   -1.5110   -4.9890   -1.4100 H   0  0  0  0  0  0  0  0  0  0  0  0
   -2.4290   -1.9130    1.4010 H   0  0  0  0  0  0  0  0  0  0  0  0
   -0.6920   -1.0350    2.7640 H   0  0  0  0  0  0  0  0  0  0  0  0
    0.9920   -1.5780    2.5690 H   0  0  0  0  0  0  0  0  0  0  0  0
    2.4620   -1.6530    1.5420 H   0  0  0  0  0  0  0  0  0  0  0  0
    4.7680   -1.2110    0.8130 H   0  0  0  0  0  0  0  0  0  0  0  0
    8.1010    2.6300   -1.5960 H   0  0  0  0  0  0  0  0  0  0  0  0
 11 32  2  0  0  0  0
 10 32  1  0  0  0  0
 11 12  1  0  0  0  0
  9 10  2  0  0  0  0
 12 17  2  0  0  0  0
 12 13  1  0  0  0  0
 16 17  1  0  0  0  0
  9 13  1  0  0  0  0
  8  9  1  0  0  0  0
 13 14  2  0  0  0  0
  7  8  1  0  0  0  0
 15 16  2  0  0  0  0
  7 33  2  0  0  0  0
 14 15  1  0  0  0  0
  7 29  1  0  0  0  0
 21 34  1  0  0  0  0
 20 21  2  0  0  0  0
 19 20  1  0  0  0  0
 21 22  1  0  0  0  0
 19 28  1  0  0  0  0
 18 19  2  0  0  0  0
 22 23  2  0  0  0  0
 25 29  1  0  0  0  0
 24 29  1  0  0  0  0
 18 23  1  0  0  0  0
 23 24  1  0  0  0  0
  6 25  2  0  0  0  0
  5  6  1  0  0  0  0
 25 26  1  0  0  0  0
  1  5  2  0  0  0  0
 26 27  2  0  0  0  0
  1 27  1  0  0  0  0
  1  2  1  0  0  0  0
  2  3  2  0  0  0  0
  2 31  1  0  0  0  0
  3 30  1  0  0  0  0
  4 30  1  0  0  0  0
  4 31  2  0  0  0  0
  3 35  1  0  0  0  0
  4 36  1  0  0  0  0
  5 37  1  0  0  0  0
  6 38  1  0  0  0  0
  8 39  1  0  0  0  0
  8 40  1  0  0  0  0
 10 41  1  0  0  0  0
 11 42  1  0  0  0  0
 14 43  1  0  0  0  0
 15 44  1  0  0  0  0
 16 45  1  0  0  0  0
 17 46  1  0  0  0  0
 18 47  1  0  0  0  0
 20 48  1  0  0  0  0
 22 49  1  0  0  0  0
 24 50  1  0  0  0  0
 24 51  1  0  0  0  0
 26 52  1  0  0  0  0
 27 53  1  0  0  0  0
 30 54  1  0  0  0  0
M  END
> <OPENEYE_ISO_SMILES>
c1ccc2c(c1)cncc2CC(=O)N(Cc3cc(cc(c3)Cl)F)c4ccc(cc4)c5c[nH]cn5

> <OPENEYE_INCHI>
InChI=1S/C27H20ClFN4O/c28-22-9-18(10-23(29)12-22)16-33(24-7-5-19(6-8-24)26-15-31-17-32-26)27(34)11-21-14-30-13-20-3-1-2-4-25(20)21/h1-10,12-15,17H,11,16H2,(H,31,32)

> <OPENEYE_INCHIKEY>
HMZYKUVJCFLOFI-UHFFFAOYSA-N

> <FORMULA>
C27H20ClFN4O

$$$$
