7YY
  -OEChem-02242320013D

 54 58  0     0  0  0  0  0  0999 V2000
    0.1630    0.1930   -0.3630 C   0  0  0  0  0  0  0  0  0  0  0  0
   -2.0410    1.0810   -0.6670 C   0  0  0  0  0  0  0  0  0  0  0  0
   -1.6730    2.3620   -0.3840 C   0  0  0  0  0  0  0  0  0  0  0  0
   -2.6630    3.3160   -0.0680 C   0  0  0  0  0  0  0  0  0  0  0  0
    7.3690    1.3950   -1.9330 C   0  0  0  0  0  0  0  0  0  0  0  0
    6.3660    1.5490   -0.8770 N   0  0  0  0  0  0  0  0  0  0  0  0
    5.9760    2.6990   -0.2980 C   0  0  0  0  0  0  0  0  0  0  0  0
    5.0630    2.4140    0.5950 N   0  0  0  0  0  0  0  0  0  0  0  0
    4.8450    1.1000    0.6160 C   0  0  0  0  0  0  0  0  0  0  0  0
    3.8650    0.3890    1.5130 C   0  0  0  0  0  0  0  0  0  0  0  0
    2.5630    0.3070    0.8460 N   0  0  0  0  0  0  0  0  0  0  0  0
    1.6570    1.2900    1.0120 C   0  0  0  0  0  0  0  0  0  0  0  0
    1.9250    2.2460    1.7190 O   0  0  0  0  0  0  0  0  0  0  0  0
    0.4670    1.2240    0.4070 N   0  0  0  0  0  0  0  0  0  0  0  0
   -1.0540    0.1390   -0.9800 N   0  0  0  0  0  0  0  0  0  0  0  0
   -2.6500    4.6590    0.2600 C   0  0  0  0  0  0  0  0  0  0  0  0
   -3.9180    5.0460    0.4610 N   0  0  0  0  0  0  0  0  0  0  0  0
   -4.3350    6.4020    0.8290 C   0  0  0  0  0  0  0  0  0  0  0  0
   -4.7840    3.9640    0.2690 N   0  0  0  0  0  0  0  0  0  0  0  0
   -4.0730    2.8980   -0.0520 C   0  0  0  0  0  0  0  0  0  0  0  0
   -4.3840    1.5540   -0.3550 C   0  0  0  0  0  0  0  0  0  0  0  0
   -3.3860    0.6830   -0.6460 C   0  0  0  0  0  0  0  0  0  0  0  0
   -3.7850   -0.9660   -1.0170 Cl  0  0  0  0  0  0  0  0  0  0  0  0
    1.0690   -0.8170   -0.5450 N   0  0  0  0  0  0  0  0  0  0  0  0
    0.7360   -1.9610   -1.3980 C   0  0  0  0  0  0  0  0  0  0  0  0
   -0.1000   -2.9430   -0.6180 C   0  0  0  0  0  0  0  0  0  0  0  0
    0.4950   -3.7550    0.3330 C   0  0  0  0  0  0  0  0  0  0  0  0
    1.8240   -3.6680    0.5590 F   0  0  0  0  0  0  0  0  0  0  0  0
   -0.2720   -4.6570    1.0510 C   0  0  0  0  0  0  0  0  0  0  0  0
   -1.6340   -4.7460    0.8180 C   0  0  0  0  0  0  0  0  0  0  0  0
   -2.3830   -5.6250    1.5190 F   0  0  0  0  0  0  0  0  0  0  0  0
   -2.2280   -3.9310   -0.1340 C   0  0  0  0  0  0  0  0  0  0  0  0
   -3.5570   -4.0170   -0.3620 F   0  0  0  0  0  0  0  0  0  0  0  0
   -1.4600   -3.0270   -0.8470 C   0  0  0  0  0  0  0  0  0  0  0  0
    2.2710   -0.7520    0.0640 C   0  0  0  0  0  0  0  0  0  0  0  0
    3.0840   -1.6420   -0.0900 O   0  0  0  0  0  0  0  0  0  0  0  0
    5.6160    0.5280   -0.2720 N   0  0  0  0  0  0  0  0  0  0  0  0
   -0.6300    2.6440   -0.4020 H   0  0  0  0  0  0  0  0  0  0  0  0
    8.3510    1.2460   -1.4820 H   0  0  0  0  0  0  0  0  0  0  0  0
    7.1180    0.5310   -2.5490 H   0  0  0  0  0  0  0  0  0  0  0  0
    7.3860    2.2910   -2.5530 H   0  0  0  0  0  0  0  0  0  0  0  0
    6.3510    3.6850   -0.5300 H   0  0  0  0  0  0  0  0  0  0  0  0
    4.2290   -0.6170    1.7240 H   0  0  0  0  0  0  0  0  0  0  0  0
    3.7610    0.9410    2.4470 H   0  0  0  0  0  0  0  0  0  0  0  0
   -1.2340   -0.5530   -1.6360 H   0  0  0  0  0  0  0  0  0  0  0  0
   -1.7740    5.2850    0.3410 H   0  0  0  0  0  0  0  0  0  0  0  0
   -4.3550    6.4940    1.9150 H   0  0  0  0  0  0  0  0  0  0  0  0
   -3.6310    7.1230    0.4150 H   0  0  0  0  0  0  0  0  0  0  0  0
   -5.3310    6.5960    0.4290 H   0  0  0  0  0  0  0  0  0  0  0  0
   -5.4110    1.2210   -0.3510 H   0  0  0  0  0  0  0  0  0  0  0  0
    0.1740   -1.6150   -2.2660 H   0  0  0  0  0  0  0  0  0  0  0  0
    1.6530   -2.4470   -1.7290 H   0  0  0  0  0  0  0  0  0  0  0  0
    0.1920   -5.2910    1.7920 H   0  0  0  0  0  0  0  0  0  0  0  0
   -1.9240   -2.3890   -1.5850 H   0  0  0  0  0  0  0  0  0  0  0  0
 17 18  1  0  0  0  0
 17 19  1  0  0  0  0
 16 17  1  0  0  0  0
 19 20  2  0  0  0  0
  4 16  2  0  0  0  0
  4 20  1  0  0  0  0
 20 21  1  0  0  0  0
  3  4  1  0  0  0  0
 21 22  2  0  0  0  0
  2  3  2  0  0  0  0
  2 22  1  0  0  0  0
 22 23  1  0  0  0  0
  2 15  1  0  0  0  0
  1 15  1  0  0  0  0
  1 14  2  0  0  0  0
 12 14  1  0  0  0  0
  1 24  1  0  0  0  0
 12 13  2  0  0  0  0
 11 12  1  0  0  0  0
 24 25  1  0  0  0  0
 24 35  1  0  0  0  0
 25 26  1  0  0  0  0
 26 34  2  0  0  0  0
 26 27  1  0  0  0  0
 32 34  1  0  0  0  0
 27 28  1  0  0  0  0
 27 29  2  0  0  0  0
 32 33  1  0  0  0  0
 30 32  2  0  0  0  0
 11 35  1  0  0  0  0
 10 11  1  0  0  0  0
 35 36  2  0  0  0  0
 29 30  1  0  0  0  0
 30 31  1  0  0  0  0
  9 37  2  0  0  0  0
  6 37  1  0  0  0  0
  9 10  1  0  0  0  0
  5  6  1  0  0  0  0
  8  9  1  0  0  0  0
  6  7  1  0  0  0  0
  7  8  2  0  0  0  0
  3 38  1  0  0  0  0
  5 39  1  0  0  0  0
  5 40  1  0  0  0  0
  5 41  1  0  0  0  0
  7 42  1  0  0  0  0
 10 43  1  0  0  0  0
 10 44  1  0  0  0  0
 15 45  1  0  0  0  0
 16 46  1  0  0  0  0
 18 47  1  0  0  0  0
 18 48  1  0  0  0  0
 18 49  1  0  0  0  0
 21 50  1  0  0  0  0
 25 51  1  0  0  0  0
 25 52  1  0  0  0  0
 29 53  1  0  0  0  0
 34 54  1  0  0  0  0
M  END
> <OPENEYE_ISO_SMILES>
Cn1cc2cc(c(cc2n1)Cl)Nc3nc(=O)n(c(=O)n3Cc4cc(c(cc4F)F)F)Cc5ncn(n5)C

> <OPENEYE_INCHI>
InChI=1S/C22H17ClF3N9O2/c1-32-7-12-4-18(13(23)5-17(12)30-32)28-20-29-21(36)35(9-19-27-10-33(2)31-19)22(37)34(20)8-11-3-15(25)16(26)6-14(11)24/h3-7,10H,8-9H2,1-2H3,(H,28,29,36)

> <OPENEYE_INCHIKEY>
QMPBBNUOBOFBFS-UHFFFAOYSA-N

> <FORMULA>
C22H17ClF3N9O2

$$$$
