UJ1
  -OEChem-02242320043D

 66 68  0     1  0  0  0  0  0999 V2000
   -2.1350    0.6140    0.6340 N   0  0  0  0  0  0  0  0  0  0  0  0
    4.3000    0.3750   -1.2580 N   0  0  0  0  0  0  0  0  0  0  0  0
   -1.1170    0.1480   -0.1150 C   0  0  0  0  0  0  0  0  0  0  0  0
   -3.3030    1.0770    0.0170 C   0  0  0  0  0  0  0  0  0  0  0  0
   -3.8530    2.2950    0.3940 C   0  0  0  0  0  0  0  0  0  0  0  0
   -3.1930    3.1210    1.4670 C   0  0  0  0  0  0  0  0  0  0  0  0
   -2.0890    3.9790    0.8450 C   0  0  0  0  0  0  0  0  0  0  0  0
   -5.6120    1.9920   -1.2030 C   0  0  0  0  0  0  0  0  0  0  0  0
   -3.3140   -0.9980   -1.3930 C   0  0  0  0  0  0  0  0  0  0  0  0
    0.6460   -2.4200    1.9910 C   0  0  0  0  0  0  0  0  0  0  0  0
   -1.9810   -3.0360    2.3330 C   0  0  0  0  0  0  0  0  0  0  0  0
    2.7970    0.7560    0.2810 C   0  0  0  0  0  0  0  0  0  0  0  0
    4.0250    1.1120   -0.1610 C   0  0  0  0  0  0  0  0  0  0  0  0
    4.9260    2.1480    0.4610 C   0  0  0  0  0  0  0  0  0  0  0  0
    6.2220    2.2470   -0.3460 C   0  0  0  0  0  0  0  0  0  0  0  0
   -1.1790    0.2040   -1.3250 O   0  0  0  0  0  0  0  0  0  0  0  0
    0.1000   -0.4410    0.5510 C   0  0  1  0  0  0  0  0  0  0  0  0
   -0.3100   -1.6270    1.3860 C   0  0  0  0  0  0  0  0  0  0  0  0
   -1.6510   -1.9360    1.5570 C   0  0  0  0  0  0  0  0  0  0  0  0
   -0.9690   -3.7890    2.8990 C   0  0  0  0  0  0  0  0  0  0  0  0
    0.2960   -3.4630    2.7190 N   0  0  0  0  0  0  0  0  0  0  0  0
    1.0560   -0.8720   -0.4720 N   0  0  0  0  0  0  0  0  0  0  0  0
    2.3000   -0.2350   -0.5810 C   0  0  0  0  0  0  0  0  0  0  0  0
    3.2030   -0.4600   -1.5060 N   0  0  0  0  0  0  0  0  0  0  0  0
    4.2200    3.5050    0.4590 C   0  0  0  0  0  0  0  0  0  0  0  0
    5.2500    1.7430    1.9000 C   0  0  0  0  0  0  0  0  0  0  0  0
    0.7400   -1.8800   -1.3080 C   0  0  0  0  0  0  0  0  0  0  0  0
   -0.3680   -2.3730   -1.2730 O   0  0  0  0  0  0  0  0  0  0  0  0
    1.7630   -2.3960   -2.2870 C   0  0  0  0  0  0  0  0  0  0  0  0
    1.1530   -3.5320   -3.1110 C   0  0  0  0  0  0  0  0  0  0  0  0
   -3.9110    0.3220   -0.9770 C   0  0  0  0  0  0  0  0  0  0  0  0
   -5.0630    0.7810   -1.5840 C   0  0  0  0  0  0  0  0  0  0  0  0
   -5.0050    2.7490   -0.2170 C   0  0  0  0  0  0  0  0  0  0  0  0
   -2.0610    0.6250    1.6010 H   0  0  0  0  0  0  0  0  0  0  0  0
    5.1130    0.4200   -1.7850 H   0  0  0  0  0  0  0  0  0  0  0  0
   -3.9340    3.7680    1.9360 H   0  0  0  0  0  0  0  0  0  0  0  0
   -2.7600    2.4610    2.2190 H   0  0  0  0  0  0  0  0  0  0  0  0
   -2.5220    4.6390    0.0940 H   0  0  0  0  0  0  0  0  0  0  0  0
   -1.6120    4.5760    1.6220 H   0  0  0  0  0  0  0  0  0  0  0  0
   -1.3470    3.3320    0.3770 H   0  0  0  0  0  0  0  0  0  0  0  0
   -6.5120    2.3500   -1.6790 H   0  0  0  0  0  0  0  0  0  0  0  0
   -2.7010   -0.8560   -2.2820 H   0  0  0  0  0  0  0  0  0  0  0  0
   -2.6970   -1.3890   -0.5840 H   0  0  0  0  0  0  0  0  0  0  0  0
   -4.1140   -1.7050   -1.6130 H   0  0  0  0  0  0  0  0  0  0  0  0
    1.6930   -2.1870    1.8630 H   0  0  0  0  0  0  0  0  0  0  0  0
   -3.0150   -3.3060    2.4880 H   0  0  0  0  0  0  0  0  0  0  0  0
    2.2900    1.1620    1.1430 H   0  0  0  0  0  0  0  0  0  0  0  0
    5.9910    2.5350   -1.3720 H   0  0  0  0  0  0  0  0  0  0  0  0
    6.8740    2.9950    0.1040 H   0  0  0  0  0  0  0  0  0  0  0  0
    6.7250    1.2800   -0.3450 H   0  0  0  0  0  0  0  0  0  0  0  0
    0.5650    0.3100    1.1900 H   0  0  0  0  0  0  0  0  0  0  0  0
   -2.4200   -1.3340    1.0960 H   0  0  0  0  0  0  0  0  0  0  0  0
   -1.2180   -4.6500    3.5020 H   0  0  0  0  0  0  0  0  0  0  0  0
    3.2960    3.4350    1.0340 H   0  0  0  0  0  0  0  0  0  0  0  0
    4.8720    4.2540    0.9090 H   0  0  0  0  0  0  0  0  0  0  0  0
    3.9890    3.7940   -0.5660 H   0  0  0  0  0  0  0  0  0  0  0  0
    5.7530    0.7760    1.9010 H   0  0  0  0  0  0  0  0  0  0  0  0
    5.9020    2.4920    2.3500 H   0  0  0  0  0  0  0  0  0  0  0  0
    4.3270    1.6730    2.4750 H   0  0  0  0  0  0  0  0  0  0  0  0
    2.0690   -1.5880   -2.9520 H   0  0  0  0  0  0  0  0  0  0  0  0
    2.6320   -2.7670   -1.7430 H   0  0  0  0  0  0  0  0  0  0  0  0
    0.2850   -3.1600   -3.6550 H   0  0  0  0  0  0  0  0  0  0  0  0
    1.8930   -3.9050   -3.8190 H   0  0  0  0  0  0  0  0  0  0  0  0
    0.8480   -4.3390   -2.4460 H   0  0  0  0  0  0  0  0  0  0  0  0
   -5.5360    0.1940   -2.3580 H   0  0  0  0  0  0  0  0  0  0  0  0
   -5.4340    3.6970    0.0750 H   0  0  0  0  0  0  0  0  0  0  0  0
 20 21  2  0  0  0  0
 11 20  1  0  0  0  0
 10 21  1  0  0  0  0
 11 19  2  0  0  0  0
 10 18  2  0  0  0  0
 18 19  1  0  0  0  0
 17 18  1  0  0  0  0
 29 30  1  0  0  0  0
  3 16  2  0  0  0  0
 27 28  2  0  0  0  0
  3 17  1  0  0  0  0
 17 22  1  0  0  0  0
 27 29  1  0  0  0  0
 22 27  1  0  0  0  0
  1  3  1  0  0  0  0
 22 23  1  0  0  0  0
  9 31  1  0  0  0  0
 14 25  1  0  0  0  0
 12 23  1  0  0  0  0
 12 13  2  0  0  0  0
 31 32  2  0  0  0  0
  4 31  1  0  0  0  0
 23 24  2  0  0  0  0
  8 32  1  0  0  0  0
  1  4  1  0  0  0  0
  4  5  2  0  0  0  0
 13 14  1  0  0  0  0
  2 13  1  0  0  0  0
  8 33  2  0  0  0  0
 14 26  1  0  0  0  0
 14 15  1  0  0  0  0
  5 33  1  0  0  0  0
  5  6  1  0  0  0  0
  2 24  1  0  0  0  0
  6  7  1  0  0  0  0
  1 34  1  0  0  0  0
  2 35  1  0  0  0  0
  6 36  1  0  0  0  0
  6 37  1  0  0  0  0
  7 38  1  0  0  0  0
  7 39  1  0  0  0  0
  7 40  1  0  0  0  0
  8 41  1  0  0  0  0
  9 42  1  0  0  0  0
  9 43  1  0  0  0  0
  9 44  1  0  0  0  0
 10 45  1  0  0  0  0
 11 46  1  0  0  0  0
 12 47  1  0  0  0  0
 15 48  1  0  0  0  0
 15 49  1  0  0  0  0
 15 50  1  0  0  0  0
 17 51  1  0  0  0  0
 19 52  1  0  0  0  0
 20 53  1  0  0  0  0
 25 54  1  0  0  0  0
 25 55  1  0  0  0  0
 25 56  1  0  0  0  0
 26 57  1  0  0  0  0
 26 58  1  0  0  0  0
 26 59  1  0  0  0  0
 29 60  1  0  0  0  0
 29 61  1  0  0  0  0
 30 62  1  0  0  0  0
 30 63  1  0  0  0  0
 30 64  1  0  0  0  0
 32 65  1  0  0  0  0
 33 66  1  0  0  0  0
M  END
> <OPENEYE_ISO_SMILES>
CCc1cccc(c1NC(=O)[C@@H](c2cccnc2)N(c3cc([nH]n3)C(C)(C)C)C(=O)CC)C

> <OPENEYE_INCHI>
InChI=1S/C26H33N5O2/c1-7-18-12-9-11-17(3)23(18)28-25(33)24(19-13-10-14-27-16-19)31(22(32)8-2)21-15-20(29-30-21)26(4,5)6/h9-16,24H,7-8H2,1-6H3,(H,28,33)(H,29,30)/t24-/m1/s1

> <OPENEYE_INCHIKEY>
ATGHYXLOAJYKKJ-XMMPIXPASA-N

> <FORMULA>
C26H33N5O2

$$$$
