7PD
  -OEChem-02242320013D

 18 19  0     0  0  0  0  0  0999 V2000
    2.3690    0.9840    0.0000 C   0  0  0  0  0  0  0  0  0  0  0  0
    0.0870    0.7320   -0.0030 C   0  0  0  0  0  0  0  0  0  0  0  0
    0.2130   -0.6710    0.0010 C   0  0  0  0  0  0  0  0  0  0  0  0
    2.5410   -0.4210   -0.0010 C   0  0  0  0  0  0  0  0  0  0  0  0
   -1.2640    1.3040   -0.0020 C   0  0  0  0  0  0  0  0  0  0  0  0
   -2.0910   -0.9000    0.0050 C   0  0  0  0  0  0  0  0  0  0  0  0
    1.1710    1.5100    0.0020 N   0  0  0  0  0  0  0  0  0  0  0  0
   -0.8850   -1.4280    0.0050 N   0  0  0  0  0  0  0  0  0  0  0  0
    1.4620   -1.2320   -0.0000 N   0  0  0  0  0  0  0  0  0  0  0  0
   -2.3080    0.4430   -0.0070 N   0  0  0  0  0  0  0  0  0  0  0  0
   -3.1710   -1.7380   -0.0010 N   0  0  0  0  0  0  0  0  0  0  0  0
    3.6630   -0.8970   -0.0020 O   0  0  0  0  0  0  0  0  0  0  0  0
   -1.4400    2.5090    0.0040 O   0  0  0  0  0  0  0  0  0  0  0  0
    3.2350    1.6290    0.0050 H   0  0  0  0  0  0  0  0  0  0  0  0
    1.5700   -2.1960   -0.0010 H   0  0  0  0  0  0  0  0  0  0  0  0
   -3.2160    0.7850   -0.0070 H   0  0  0  0  0  0  0  0  0  0  0  0
   -4.0690   -1.3710   -0.0150 H   0  0  0  0  0  0  0  0  0  0  0  0
   -3.0400   -2.6990    0.0070 H   0  0  0  0  0  0  0  0  0  0  0  0
  6 11  1  0  0  0  0
  6  8  2  0  0  0  0
  3  8  1  0  0  0  0
  4  9  1  0  0  0  0
  3  9  1  0  0  0  0
  4 12  2  0  0  0  0
  6 10  1  0  0  0  0
  1  4  1  0  0  0  0
  2  3  2  0  0  0  0
  5 10  1  0  0  0  0
  2  5  1  0  0  0  0
  2  7  1  0  0  0  0
  1  7  2  0  0  0  0
  5 13  2  0  0  0  0
  1 14  1  0  0  0  0
  9 15  1  0  0  0  0
 10 16  1  0  0  0  0
 11 17  1  0  0  0  0
 11 18  1  0  0  0  0
M  END
> <OPENEYE_ISO_SMILES>
c1c(=O)[nH]c2c(n1)c(=O)[nH]c(n2)N

> <OPENEYE_INCHI>
InChI=1S/C6H5N5O2/c7-6-10-4-3(5(13)11-6)8-1-2(12)9-4/h1H,(H4,7,9,10,11,12,13)

> <OPENEYE_INCHIKEY>
GLKCOBIIZKYKFN-UHFFFAOYSA-N

> <FORMULA>
C6H5N5O2

$$$$
