UGG
  -OEChem-02242320043D

 34 36  0     0  0  0  0  0  0999 V2000
   -2.0450   -0.4510    1.1730 N   0  0  0  0  0  0  0  0  0  0  0  0
    3.7840   -1.2000   -1.1400 C   0  0  0  0  0  0  0  0  0  0  0  0
    3.4960    0.0120   -0.4900 C   0  0  0  0  0  0  0  0  0  0  0  0
    4.3000    1.1510   -0.6480 C   0  0  0  0  0  0  0  0  0  0  0  0
    3.9720    2.3000    0.0070 C   0  0  0  0  0  0  0  0  0  0  0  0
    2.8510    2.3620    0.8320 C   0  0  0  0  0  0  0  0  0  0  0  0
    2.3540    0.0770    0.3500 C   0  0  0  0  0  0  0  0  0  0  0  0
   -4.1170    1.2800   -1.3230 C   0  0  0  0  0  0  0  0  0  0  0  0
   -5.5030   -0.2080   -0.0550 C   0  0  0  0  0  0  0  0  0  0  0  0
   -0.6930   -0.2130   -0.5700 O   0  0  0  0  0  0  0  0  0  0  0  0
   -0.8350   -0.5480    0.5870 C   0  0  0  0  0  0  0  0  0  0  0  0
   -3.1570   -0.0570    0.4210 C   0  0  0  0  0  0  0  0  0  0  0  0
   -4.4070   -0.5990    0.6900 C   0  0  0  0  0  0  0  0  0  0  0  0
   -5.3580    0.7300   -1.0600 C   0  0  0  0  0  0  0  0  0  0  0  0
   -3.0160    0.8890   -0.5860 C   0  0  0  0  0  0  0  0  0  0  0  0
    0.3410   -1.0730    1.3700 C   0  0  0  0  0  0  0  0  0  0  0  0
    1.5660   -1.0800    0.4920 C   0  0  0  0  0  0  0  0  0  0  0  0
    2.0480    1.2760    1.0090 C   0  0  0  0  0  0  0  0  0  0  0  0
    3.0000   -2.2380   -0.9650 N   0  0  0  0  0  0  0  0  0  0  0  0
    1.9310   -2.2060   -0.1820 C   0  0  0  0  0  0  0  0  0  0  0  0
   -2.1460   -0.6590    2.1150 H   0  0  0  0  0  0  0  0  0  0  0  0
    4.6470   -1.2760   -1.7850 H   0  0  0  0  0  0  0  0  0  0  0  0
    5.1720    1.1180   -1.2830 H   0  0  0  0  0  0  0  0  0  0  0  0
    4.5910    3.1760   -0.1140 H   0  0  0  0  0  0  0  0  0  0  0  0
    2.6150    3.2860    1.3400 H   0  0  0  0  0  0  0  0  0  0  0  0
   -4.0070    2.0130   -2.1090 H   0  0  0  0  0  0  0  0  0  0  0  0
   -6.4730   -0.6360    0.1480 H   0  0  0  0  0  0  0  0  0  0  0  0
   -4.5220   -1.3260    1.4810 H   0  0  0  0  0  0  0  0  0  0  0  0
   -6.2160    1.0350   -1.6400 H   0  0  0  0  0  0  0  0  0  0  0  0
   -2.0470    1.3190   -0.7920 H   0  0  0  0  0  0  0  0  0  0  0  0
    0.5170   -0.4320    2.2340 H   0  0  0  0  0  0  0  0  0  0  0  0
    0.1300   -2.0880    1.7070 H   0  0  0  0  0  0  0  0  0  0  0  0
    1.1810    1.3380    1.6510 H   0  0  0  0  0  0  0  0  0  0  0  0
    1.3280   -3.0960   -0.0810 H   0  0  0  0  0  0  0  0  0  0  0  0
  2 19  2  0  0  0  0
 19 20  1  0  0  0  0
  2  3  1  0  0  0  0
 17 20  2  0  0  0  0
  3  4  2  0  0  0  0
  3  7  1  0  0  0  0
  7 17  1  0  0  0  0
 16 17  1  0  0  0  0
  4  5  1  0  0  0  0
  7 18  2  0  0  0  0
 11 16  1  0  0  0  0
 10 11  2  0  0  0  0
  1 11  1  0  0  0  0
  5  6  2  0  0  0  0
  6 18  1  0  0  0  0
  1 12  1  0  0  0  0
 12 15  2  0  0  0  0
  8 15  1  0  0  0  0
 12 13  1  0  0  0  0
  8 14  2  0  0  0  0
  9 13  2  0  0  0  0
  9 14  1  0  0  0  0
  1 21  1  0  0  0  0
  2 22  1  0  0  0  0
  4 23  1  0  0  0  0
  5 24  1  0  0  0  0
  6 25  1  0  0  0  0
  8 26  1  0  0  0  0
  9 27  1  0  0  0  0
 13 28  1  0  0  0  0
 14 29  1  0  0  0  0
 15 30  1  0  0  0  0
 16 31  1  0  0  0  0
 16 32  1  0  0  0  0
 18 33  1  0  0  0  0
 20 34  1  0  0  0  0
M  END
> <OPENEYE_ISO_SMILES>
c1ccc(cc1)NC(=O)Cc2cncc3c2cccc3

> <OPENEYE_INCHI>
InChI=1S/C17H14N2O/c20-17(19-15-7-2-1-3-8-15)10-14-12-18-11-13-6-4-5-9-16(13)14/h1-9,11-12H,10H2,(H,19,20)

> <OPENEYE_INCHIKEY>
XBRJTBLYIAYTOZ-UHFFFAOYSA-N

> <FORMULA>
C17H14N2O

$$$$
