R8K
  -OEChem-02242320033D

 49 53  0     1  0  0  0  0  0999 V2000
    3.4610   -1.4690   -0.2720 C   0  0  0  0  0  0  0  0  0  0  0  0
    4.5010   -2.3350   -0.5320 C   0  0  0  0  0  0  0  0  0  0  0  0
    5.7890   -1.8470   -0.7110 C   0  0  0  0  0  0  0  0  0  0  0  0
    6.0420   -0.4930   -0.6320 C   0  0  0  0  0  0  0  0  0  0  0  0
    5.0050    0.3960   -0.3710 C   0  0  0  0  0  0  0  0  0  0  0  0
    3.7040   -0.0990   -0.1900 C   0  0  0  0  0  0  0  0  0  0  0  0
    2.8500    1.0720    0.0650 C   0  0  0  0  0  0  0  0  0  0  0  0
    3.6880    2.1970    0.0210 C   0  0  0  0  0  0  0  0  0  0  0  0
   -5.3090    0.8560   -2.3940 C   0  0  0  0  0  0  0  0  0  0  0  0
   -2.9490    0.0380   -0.3400 C   0  0  0  0  0  0  0  0  0  0  0  0
   -1.6020   -0.5940   -0.0970 C   0  0  1  0  0  0  0  0  0  0  0  0
   -0.4740    0.3240   -0.6230 C   0  0  0  0  0  0  0  0  0  0  0  0
    1.4860    1.2580    0.3180 C   0  0  0  0  0  0  0  0  0  0  0  0
    1.8600    3.5280    0.4590 C   0  0  0  0  0  0  0  0  0  0  0  0
   -0.0750    0.1160    1.6840 C   0  0  0  0  0  0  0  0  0  0  0  0
   -1.3340   -0.7180    1.4070 C   0  0  0  0  0  0  0  0  0  0  0  0
   -2.5270   -0.4330    2.3180 C   0  0  0  0  0  0  0  0  0  0  0  0
   -2.0040   -1.5710    3.2140 C   0  0  0  0  0  0  0  0  0  0  0  0
   -1.3160   -2.1420    1.9610 C   0  0  0  0  0  0  0  0  0  0  0  0
    6.8010   -2.7050   -0.9640 F   0  0  0  0  0  0  0  0  0  0  0  0
   -1.5370   -1.8500   -0.7090 F   0  0  0  0  0  0  0  0  0  0  0  0
   -4.0270   -0.7390   -0.5650 N   0  0  0  0  0  0  0  0  0  0  0  0
    0.6220    0.1780    0.3710 N   0  0  1  0  0  0  0  0  0  0  0  0
    4.9680    1.7740   -0.2400 N   0  0  0  0  0  0  0  0  0  0  0  0
    3.1480    3.3980    0.2240 N   0  0  0  0  0  0  0  0  0  0  0  0
    1.0390    2.4970    0.5080 N   0  0  0  0  0  0  0  0  0  0  0  0
   -5.6680    0.8630    0.2500 O   0  0  0  0  0  0  0  0  0  0  0  0
   -3.0620    1.2450   -0.3330 O   0  0  0  0  0  0  0  0  0  0  0  0
   -6.3860   -1.1480   -1.0000 O   0  0  0  0  0  0  0  0  0  0  0  0
   -5.5070   -0.0450   -0.8320 S   0  0  0  0  0  0  0  0  0  0  0  0
    2.4600   -1.8500   -0.1380 H   0  0  0  0  0  0  0  0  0  0  0  0
    4.3130   -3.3960   -0.5960 H   0  0  0  0  0  0  0  0  0  0  0  0
    7.0470   -0.1230   -0.7720 H   0  0  0  0  0  0  0  0  0  0  0  0
   -6.2470    1.3500   -2.6500 H   0  0  0  0  0  0  0  0  0  0  0  0
   -4.5230    1.6030   -2.2860 H   0  0  0  0  0  0  0  0  0  0  0  0
   -5.0390    0.1560   -3.1850 H   0  0  0  0  0  0  0  0  0  0  0  0
   -0.1420   -0.0080   -1.6060 H   0  0  0  0  0  0  0  0  0  0  0  0
   -0.8140    1.3580   -0.6640 H   0  0  0  0  0  0  0  0  0  0  0  0
    1.4590    4.5180    0.6180 H   0  0  0  0  0  0  0  0  0  0  0  0
   -0.3470    1.1170    2.0190 H   0  0  0  0  0  0  0  0  0  0  0  0
    0.5540   -0.3750    2.4260 H   0  0  0  0  0  0  0  0  0  0  0  0
   -2.4910    0.5480    2.7920 H   0  0  0  0  0  0  0  0  0  0  0  0
   -3.4910   -0.6470    1.8570 H   0  0  0  0  0  0  0  0  0  0  0  0
   -1.3050   -1.2360    3.9810 H   0  0  0  0  0  0  0  0  0  0  0  0
   -2.7920   -2.2120    3.6090 H   0  0  0  0  0  0  0  0  0  0  0  0
   -1.9390   -2.8370    1.3980 H   0  0  0  0  0  0  0  0  0  0  0  0
   -0.3130   -2.5260    2.1490 H   0  0  0  0  0  0  0  0  0  0  0  0
   -3.9370   -1.7050   -0.5700 H   0  0  0  0  0  0  0  0  0  0  0  0
    5.7380    2.3580   -0.3200 H   0  0  0  0  0  0  0  0  0  0  0  0
 10 28  2  0  0  0  0
 29 30  2  0  0  0  0
 11 21  1  0  0  0  0
 17 18  1  0  0  0  0
 16 17  1  0  0  0  0
 18 19  1  0  0  0  0
 10 11  1  0  0  0  0
 10 22  1  0  0  0  0
 16 19  1  0  0  0  0
 11 16  1  0  0  0  0
 11 12  1  0  0  0  0
 15 16  1  0  0  0  0
  9 30  1  0  0  0  0
 22 30  1  0  0  0  0
 27 30  2  0  0  0  0
 12 23  1  0  0  0  0
 15 23  1  0  0  0  0
 13 23  1  0  0  0  0
  1  2  2  0  0  0  0
  1  6  1  0  0  0  0
  2  3  1  0  0  0  0
 13 26  2  0  0  0  0
  7 13  1  0  0  0  0
 14 26  1  0  0  0  0
  6  7  1  0  0  0  0
  5  6  2  0  0  0  0
  7  8  2  0  0  0  0
  3 20  1  0  0  0  0
  3  4  2  0  0  0  0
 14 25  2  0  0  0  0
  4  5  1  0  0  0  0
  5 24  1  0  0  0  0
  8 25  1  0  0  0  0
  8 24  1  0  0  0  0
  1 31  1  0  0  0  0
  2 32  1  0  0  0  0
  4 33  1  0  0  0  0
  9 34  1  0  0  0  0
  9 35  1  0  0  0  0
  9 36  1  0  0  0  0
 12 37  1  0  0  0  0
 12 38  1  0  0  0  0
 14 39  1  0  0  0  0
 15 40  1  0  0  0  0
 15 41  1  0  0  0  0
 17 42  1  0  0  0  0
 17 43  1  0  0  0  0
 18 44  1  0  0  0  0
 18 45  1  0  0  0  0
 19 46  1  0  0  0  0
 19 47  1  0  0  0  0
 22 48  1  0  0  0  0
 24 49  1  0  0  0  0
M  END
> <OPENEYE_ISO_SMILES>
CS(=O)(=O)NC(=O)[C@]1(C[N@](CC12CCC2)c3c4c5ccc(cc5[nH]c4ncn3)F)F

> <OPENEYE_INCHI>
InChI=1S/C19H19F2N5O3S/c1-30(28,29)25-17(27)19(21)9-26(8-18(19)5-2-6-18)16-14-12-4-3-11(20)7-13(12)24-15(14)22-10-23-16/h3-4,7,10H,2,5-6,8-9H2,1H3,(H,25,27)(H,22,23,24)/t19-/m0/s1

> <OPENEYE_INCHIKEY>
KZZPVTBGUAEVQI-IBGZPJMESA-N

> <FORMULA>
C19H19F2N5O3S

$$$$
