@<TRIPOS>MOLECULE
/home/pku/3cl/gett_pdb/6VGZ/6VGZ_mol2/ligand/6VGZ_QZG.pdb
 31 32 0 0 0
SMALL
GASTEIGER

@<TRIPOS>ATOM
      1  C02      -13.2500  -12.2020   -8.4570 C.2   401  QZG401      0.4214
      2  C04      -12.3240  -10.0590   -8.4350 C.3   401  QZG401      0.1761
      3  C05      -10.9380   -9.4080   -8.3910 C.3   401  QZG401      0.0312
      4  C06       -9.8750   -9.9890   -7.4130 C.3   401  QZG401      0.0022
      5  C07       -8.6000   -9.2990   -7.4430 C.3   401  QZG401      0.0001
      6  C08      -10.3280  -10.1080   -6.0630 C.3   401  QZG401      0.0001
      7  C09      -13.2500   -9.3770   -9.4780 C.2   401  QZG401      0.2614
      8  C11      -15.0790   -7.8910  -10.0410 C.3   401  QZG401      0.1287
      9  C12      -16.6220   -8.3620   -9.7880 C.3   401  QZG401      0.0335
     10  C13      -16.8190   -9.7540   -9.8600 C.3   401  QZG401      0.0818
     11  C14      -18.1530  -10.0390   -9.5150 C.2   401  QZG401      0.2410
     12  C16      -17.8510  -11.0760  -11.3740 C.3   401  QZG401      0.1156
     13  C17      -16.7440  -10.1760  -11.1940 C.3   401  QZG401      0.0326
     14  C19      -14.7010   -6.3610  -10.0710 C.3   401  QZG401      0.2036
     15  C23      -13.9840  -14.3640   -8.5920 C.3   401  QZG401      0.1705
     16  C24      -14.8540  -14.5910   -9.7780 C.3   401  QZG401      0.0437
     17  C25      -15.7920  -15.6720   -9.7440 C.3   401  QZG401      0.0037
     18  C26      -15.1930  -17.0070   -9.3080 C.3   401  QZG401      0.0002
     19  C27      -16.2070  -18.1500   -9.1780 C.3   401  QZG401      0.0000
     20  C28      -16.9410  -18.4310  -10.4200 C.3   401  QZG401      0.0000
     21  C29      -15.6450  -19.4300   -8.6760 C.3   401  QZG401      0.0000
     22  C30      -14.3360  -16.7860   -8.0880 C.3   401  QZG401      0.0037
     23  C31      -13.4130  -15.6320   -8.1850 C.3   401  QZG401      0.0437
     24  N03      -12.2360  -11.3840   -8.7440 N.am  401  QZG401     -0.1611
     25  N10      -14.1890   -8.5140   -9.0990 N.am  401  QZG401     -0.2030
     26  N15      -18.6490  -10.8160  -10.3810 N.am  401  QZG401     -0.2054
     27  O01      -14.2120  -11.8370   -7.9400 O.2   401  QZG401     -0.2246
     28  O18      -18.7120   -9.7920   -8.5800 O.2   401  QZG401     -0.2734
     29  O20      -15.5940   -5.8010  -11.0210 O.3   401  QZG401     -0.2185
     30  O21      -13.1770   -9.6620  -10.5750 O.2   401  QZG401     -0.2715
     31  O22      -13.0570  -13.4620   -8.8020 O.3   401  QZG401     -0.4373
@<TRIPOS>BOND
     1    12    13    1
     2    12    26    1
     3    13    10    1
     4    29    14    1
     5    30     7    2
     6    20    19    1
     7    26    11   am
     8    14     8    1
     9     8     9    1
    10     8    25    1
    11    10     9    1
    12    10    11    1
    13    16    17    1
    14    16    15    1
    15    17    18    1
    16    11    28    2
    17     7    25   am
    18     7     2    1
    19    18    19    1
    20    18    22    1
    21    19    21    1
    22    31    15    1
    23    31     1    1
    24    24     1   am
    25    24     2    1
    26    15    23    1
    27     1    27    2
    28     2     3    1
    29     3     4    1
    30    23    22    1
    31     5     4    1
    32     4     6    1
