S6C
  -OEChem-02242320043D

 34 36  0     1  0  0  0  0  0999 V2000
   -0.8600    1.3730   -0.3130 C   0  0  0  0  0  0  0  0  0  0  0  0
    2.9230    2.1860    0.3040 C   0  0  0  0  0  0  0  0  0  0  0  0
    3.6400   -0.0020    0.3520 C   0  0  0  0  0  0  0  0  0  0  0  0
    3.6390   -2.1690    0.2820 C   0  0  0  0  0  0  0  0  0  0  0  0
    2.3190   -0.4190    0.1170 C   0  0  0  0  0  0  0  0  0  0  0  0
   -4.1700   -0.1850    0.8130 C   0  0  0  0  0  0  0  0  0  0  0  0
   -2.6990    0.1420    0.8480 C   0  0  0  0  0  0  0  0  0  0  0  0
   -2.3230    0.9330   -0.4070 C   0  0  2  0  0  0  0  0  0  0  0  0
   -2.5070    0.0490   -1.6430 C   0  0  0  0  0  0  0  0  0  0  0  0
   -1.5610   -1.1520   -1.5480 C   0  0  0  0  0  0  0  0  0  0  0  0
   -0.1210   -0.6520   -1.4210 C   0  0  0  0  0  0  0  0  0  0  0  0
    1.3230    0.5510   -0.0070 C   0  0  0  0  0  0  0  0  0  0  0  0
    0.0040    0.1880   -0.2230 N   0  0  1  0  0  0  0  0  0  0  0  0
    2.3550   -1.7970    0.0790 N   0  0  0  0  0  0  0  0  0  0  0  0
    4.3910   -1.1160    0.4420 N   0  0  0  0  0  0  0  0  0  0  0  0
    3.8920    1.3080    0.4380 N   0  0  0  0  0  0  0  0  0  0  0  0
    1.6690    1.8320    0.0880 N   0  0  0  0  0  0  0  0  0  0  0  0
   -4.8470    0.1770   -0.1200 O   0  0  0  0  0  0  0  0  0  0  0  0
   -4.7270   -0.8790    1.8170 O   0  0  0  0  0  0  0  0  0  0  0  0
   -0.5960    1.9480   -1.2010 H   0  0  0  0  0  0  0  0  0  0  0  0
   -0.7220    1.9910    0.5740 H   0  0  0  0  0  0  0  0  0  0  0  0
    3.1610    3.2370    0.3780 H   0  0  0  0  0  0  0  0  0  0  0  0
    3.9910   -3.1900    0.3070 H   0  0  0  0  0  0  0  0  0  0  0  0
   -2.4810    0.7390    1.7330 H   0  0  0  0  0  0  0  0  0  0  0  0
   -2.1220   -0.7820    0.8810 H   0  0  0  0  0  0  0  0  0  0  0  0
   -2.9620    1.8120   -0.4880 H   0  0  0  0  0  0  0  0  0  0  0  0
   -3.5380   -0.3020   -1.6900 H   0  0  0  0  0  0  0  0  0  0  0  0
   -2.2770    0.6240   -2.5400 H   0  0  0  0  0  0  0  0  0  0  0  0
   -1.8180   -1.7480   -0.6720 H   0  0  0  0  0  0  0  0  0  0  0  0
   -1.6570   -1.7630   -2.4450 H   0  0  0  0  0  0  0  0  0  0  0  0
    0.5540   -1.5040   -1.3390 H   0  0  0  0  0  0  0  0  0  0  0  0
    0.1400   -0.0670   -2.3040 H   0  0  0  0  0  0  0  0  0  0  0  0
    1.6000   -2.3880   -0.0680 H   0  0  0  0  0  0  0  0  0  0  0  0
   -5.6740   -1.0650    1.7510 H   0  0  0  0  0  0  0  0  0  0  0  0
  9 10  1  0  0  0  0
 10 11  1  0  0  0  0
  8  9  1  0  0  0  0
 11 13  1  0  0  0  0
  7  8  1  0  0  0  0
  1  8  1  0  0  0  0
  6  7  1  0  0  0  0
  1 13  1  0  0  0  0
 12 13  1  0  0  0  0
 12 17  2  0  0  0  0
  2 17  1  0  0  0  0
  5 12  1  0  0  0  0
  6 18  2  0  0  0  0
  6 19  1  0  0  0  0
  2 16  2  0  0  0  0
  5 14  1  0  0  0  0
  3  5  2  0  0  0  0
  3 16  1  0  0  0  0
  4 14  1  0  0  0  0
  3 15  1  0  0  0  0
  4 15  2  0  0  0  0
  1 20  1  0  0  0  0
  1 21  1  0  0  0  0
  2 22  1  0  0  0  0
  4 23  1  0  0  0  0
  7 24  1  0  0  0  0
  7 25  1  0  0  0  0
  8 26  1  0  0  0  0
  9 27  1  0  0  0  0
  9 28  1  0  0  0  0
 10 29  1  0  0  0  0
 10 30  1  0  0  0  0
 11 31  1  0  0  0  0
 11 32  1  0  0  0  0
 14 33  1  0  0  0  0
 19 34  1  0  0  0  0
M  END
> <OPENEYE_ISO_SMILES>
c1[nH]c2c(n1)ncnc2[N@@]3CCC[C@H](C3)CC(=O)O

> <OPENEYE_INCHI>
InChI=1S/C12H15N5O2/c18-9(19)4-8-2-1-3-17(5-8)12-10-11(14-6-13-10)15-7-16-12/h6-8H,1-5H2,(H,18,19)(H,13,14,15,16)/t8-/m0/s1

> <OPENEYE_INCHIKEY>
OHVACHOAZRWEJX-QMMMGPOBSA-N

> <FORMULA>
C12H15N5O2

$$$$
