WYJ
  -OEChem-02242320043D

 40 43  0     1  0  0  0  0  0999 V2000
   -3.3400    3.0530    0.3990 C   0  0  0  0  0  0  0  0  0  0  0  0
    2.6200    1.6230   -1.1000 C   0  0  0  0  0  0  0  0  0  0  0  0
    3.8520   -0.4950    2.4040 C   0  0  0  0  0  0  0  0  0  0  0  0
    3.0000   -0.0600    1.2100 C   0  0  2  0  0  0  0  0  0  0  0  0
    1.7500   -0.9390    1.1270 C   0  0  0  0  0  0  0  0  0  0  0  0
   -0.1940   -1.3050   -0.1460 C   0  0  0  0  0  0  0  0  0  0  0  0
   -1.4430   -0.6790   -0.0660 C   0  0  0  0  0  0  0  0  0  0  0  0
   -1.8930    0.7110    0.1010 C   0  0  0  0  0  0  0  0  0  0  0  0
   -3.2960    0.6730    0.1040 C   0  0  0  0  0  0  0  0  0  0  0  0
   -4.0100    1.8580    0.2480 C   0  0  0  0  0  0  0  0  0  0  0  0
   -1.9540    3.0890    0.4020 C   0  0  0  0  0  0  0  0  0  0  0  0
   -1.2290    1.9270    0.2550 C   0  0  0  0  0  0  0  0  0  0  0  0
   -2.6010   -1.4670   -0.1540 C   0  0  0  0  0  0  0  0  0  0  0  0
   -1.2670   -3.3320   -0.3820 C   0  0  0  0  0  0  0  0  0  0  0  0
    1.7830   -0.7250   -1.2830 C   0  0  0  0  0  0  0  0  0  0  0  0
    3.0330    0.1520   -1.1760 C   0  0  2  0  0  0  0  0  0  0  0  0
    0.9740   -0.5670   -0.0650 N   0  0  2  0  0  0  0  0  0  0  0  0
   -3.6950   -0.6440   -0.0510 N   0  0  0  0  0  0  0  0  0  0  0  0
   -2.4620   -2.7840   -0.3110 N   0  0  0  0  0  0  0  0  0  0  0  0
   -0.1550   -2.6260   -0.3030 N   0  0  0  0  0  0  0  0  0  0  0  0
    3.7580   -0.2020    0.0060 O   0  0  0  0  0  0  0  0  0  0  0  0
    3.7880    2.4470   -1.1170 O   0  0  0  0  0  0  0  0  0  0  0  0
   -3.9000    3.9700    0.5110 H   0  0  0  0  0  0  0  0  0  0  0  0
    1.9900    1.8680   -1.9550 H   0  0  0  0  0  0  0  0  0  0  0  0
    2.0660    1.7980   -0.1780 H   0  0  0  0  0  0  0  0  0  0  0  0
    4.1490   -1.5360    2.2790 H   0  0  0  0  0  0  0  0  0  0  0  0
    4.7430    0.1320    2.4630 H   0  0  0  0  0  0  0  0  0  0  0  0
    3.2730   -0.3890    3.3220 H   0  0  0  0  0  0  0  0  0  0  0  0
    2.7050    0.9820    1.3340 H   0  0  0  0  0  0  0  0  0  0  0  0
    2.0450   -1.9860    1.0580 H   0  0  0  0  0  0  0  0  0  0  0  0
    1.1400   -0.7900    2.0190 H   0  0  0  0  0  0  0  0  0  0  0  0
   -5.0900    1.8420    0.2430 H   0  0  0  0  0  0  0  0  0  0  0  0
   -1.4410    4.0320    0.5210 H   0  0  0  0  0  0  0  0  0  0  0  0
   -0.1500    1.9570    0.2580 H   0  0  0  0  0  0  0  0  0  0  0  0
   -1.1950   -4.4020   -0.5090 H   0  0  0  0  0  0  0  0  0  0  0  0
    1.1980   -0.4210   -2.1500 H   0  0  0  0  0  0  0  0  0  0  0  0
    2.0780   -1.7690   -1.3910 H   0  0  0  0  0  0  0  0  0  0  0  0
    3.6640   -0.0050   -2.0510 H   0  0  0  0  0  0  0  0  0  0  0  0
   -4.6180   -0.9430   -0.0810 H   0  0  0  0  0  0  0  0  0  0  0  0
    3.6010    3.3950   -1.0720 H   0  0  0  0  0  0  0  0  0  0  0  0
  2 22  1  0  0  0  0
 16 21  1  0  0  0  0
  4 21  1  0  0  0  0
  3  4  1  0  0  0  0
  2 16  1  0  0  0  0
 15 16  1  0  0  0  0
  4  5  1  0  0  0  0
 15 17  1  0  0  0  0
  5 17  1  0  0  0  0
  6 17  1  0  0  0  0
 11 12  2  0  0  0  0
  8 12  1  0  0  0  0
  1 11  1  0  0  0  0
  6 20  2  0  0  0  0
  6  7  1  0  0  0  0
  7  8  1  0  0  0  0
  8  9  2  0  0  0  0
  1 10  2  0  0  0  0
 14 20  1  0  0  0  0
  7 13  2  0  0  0  0
  9 10  1  0  0  0  0
  9 18  1  0  0  0  0
 14 19  2  0  0  0  0
 13 18  1  0  0  0  0
 13 19  1  0  0  0  0
  1 23  1  0  0  0  0
  2 24  1  0  0  0  0
  2 25  1  0  0  0  0
  3 26  1  0  0  0  0
  3 27  1  0  0  0  0
  3 28  1  0  0  0  0
  4 29  1  0  0  0  0
  5 30  1  0  0  0  0
  5 31  1  0  0  0  0
 10 32  1  0  0  0  0
 11 33  1  0  0  0  0
 12 34  1  0  0  0  0
 14 35  1  0  0  0  0
 15 36  1  0  0  0  0
 15 37  1  0  0  0  0
 16 38  1  0  0  0  0
 18 39  1  0  0  0  0
 22 40  1  0  0  0  0
M  END
> <OPENEYE_ISO_SMILES>
C[C@@H]1C[N@@](C[C@H](O1)CO)c2c3c4ccccc4[nH]c3ncn2

> <OPENEYE_INCHI>
InChI=1S/C16H18N4O2/c1-10-6-20(7-11(8-21)22-10)16-14-12-4-2-3-5-13(12)19-15(14)17-9-18-16/h2-5,9-11,21H,6-8H2,1H3,(H,17,18,19)/t10-,11+/m1/s1

> <OPENEYE_INCHIKEY>
SSHCMXMCAMBDLI-MNOVXSKESA-N

> <FORMULA>
C16H18N4O2

$$$$
