NY7
  -OEChem-02242320033D

 28 28  0     0  0  0  0  0  0999 V2000
    0.9890    0.7980    0.3380 N   0  0  0  0  0  0  0  0  0  0  0  0
   -2.6610   -1.1740   -0.1000 C   0  0  0  0  0  0  0  0  0  0  0  0
   -1.4970   -1.9010    0.0680 C   0  0  0  0  0  0  0  0  0  0  0  0
   -1.5480   -3.4070    0.0920 C   0  0  0  0  0  0  0  0  0  0  0  0
   -0.2860   -1.2500    0.2130 C   0  0  0  0  0  0  0  0  0  0  0  0
   -0.2370    0.1360    0.1910 C   0  0  0  0  0  0  0  0  0  0  0  0
    3.4610    0.8360    0.2820 C   0  0  0  0  0  0  0  0  0  0  0  0
   -2.6100    2.9110   -0.1780 C   0  0  0  0  0  0  0  0  0  0  0  0
   -1.4100    0.8680    0.0220 C   0  0  0  0  0  0  0  0  0  0  0  0
   -2.6190    0.2080   -0.1290 C   0  0  0  0  0  0  0  0  0  0  0  0
    2.1360    0.1730    0.0080 C   0  0  0  0  0  0  0  0  0  0  0  0
    4.5500   -0.0430   -0.1660 N   0  0  0  0  0  0  0  0  0  0  0  0
   -1.3680    2.2270   -0.0010 O   0  0  0  0  0  0  0  0  0  0  0  0
    2.1020   -0.9240   -0.5100 O   0  0  0  0  0  0  0  0  0  0  0  0
    1.0120    1.7080    0.6740 H   0  0  0  0  0  0  0  0  0  0  0  0
   -3.6050   -1.6860   -0.2130 H   0  0  0  0  0  0  0  0  0  0  0  0
   -1.4270   -3.7910   -0.9210 H   0  0  0  0  0  0  0  0  0  0  0  0
   -0.7460   -3.7880    0.7240 H   0  0  0  0  0  0  0  0  0  0  0  0
   -2.5100   -3.7310    0.4910 H   0  0  0  0  0  0  0  0  0  0  0  0
    0.6210   -1.8210    0.3440 H   0  0  0  0  0  0  0  0  0  0  0  0
    3.5130    1.7820   -0.2560 H   0  0  0  0  0  0  0  0  0  0  0  0
    3.5610    1.0200    1.3520 H   0  0  0  0  0  0  0  0  0  0  0  0
   -3.0550    2.6160   -1.1280 H   0  0  0  0  0  0  0  0  0  0  0  0
   -3.2870    2.6520    0.6360 H   0  0  0  0  0  0  0  0  0  0  0  0
   -2.4350    3.9870   -0.1770 H   0  0  0  0  0  0  0  0  0  0  0  0
   -3.5300    0.7730   -0.2600 H   0  0  0  0  0  0  0  0  0  0  0  0
    4.4450   -0.2820   -1.1400 H   0  0  0  0  0  0  0  0  0  0  0  0
    5.4500    0.3800    0.0070 H   0  0  0  0  0  0  0  0  0  0  0  0
  7 12  1  0  0  0  0
  7 11  1  0  0  0  0
 11 14  2  0  0  0  0
  1 11  1  0  0  0  0
  1  6  1  0  0  0  0
  8 13  1  0  0  0  0
  9 13  1  0  0  0  0
  6  9  2  0  0  0  0
  5  6  1  0  0  0  0
  9 10  1  0  0  0  0
  3  5  2  0  0  0  0
  2 10  2  0  0  0  0
  2  3  1  0  0  0  0
  3  4  1  0  0  0  0
  1 15  1  0  0  0  0
  2 16  1  0  0  0  0
  4 17  1  0  0  0  0
  4 18  1  0  0  0  0
  4 19  1  0  0  0  0
  5 20  1  0  0  0  0
  7 21  1  0  0  0  0
  7 22  1  0  0  0  0
  8 23  1  0  0  0  0
  8 24  1  0  0  0  0
  8 25  1  0  0  0  0
 10 26  1  0  0  0  0
 12 27  1  0  0  0  0
 12 28  1  0  0  0  0
M  END
> <OPENEYE_ISO_SMILES>
Cc1ccc(c(c1)NC(=O)CN)OC

> <OPENEYE_INCHI>
InChI=1S/C10H14N2O2/c1-7-3-4-9(14-2)8(5-7)12-10(13)6-11/h3-5H,6,11H2,1-2H3,(H,12,13)

> <OPENEYE_INCHIKEY>
SRFLDWOWAGQZAD-UHFFFAOYSA-N

> <FORMULA>
C10H14N2O2

$$$$
