@<TRIPOS>MOLECULE
/home/pku/3cl/gett_pdb/6WXC/6WXC_mol2/ligand/6WXC_CMU.pdb
 16 17 0 0 0
SMALL
GASTEIGER

@<TRIPOS>ATOM
      1 CL1        62.4760  -72.0580   23.6500 Cl    401  CMU401     -0.0758
      2  C2        62.8510  -70.8200   24.7910 C.ar  401  CMU401      0.1331
      3  C3        63.5220  -71.0750   25.9490 C.ar  401  CMU401      0.1257
      4  C4        63.9450  -72.4730   26.3710 C.3   401  CMU401      0.2498
      5  N5        65.1590  -72.9860   25.7640 N.pl3 401  CMU401     -0.1851
      6  C6        65.1160  -73.8260   24.5750 C.3   401  CMU401      0.2031
      7  C7        66.5350  -73.7300   24.0440 C.3   401  CMU401      0.0636
      8  C8        67.3980  -73.4670   25.2740 C.3   401  CMU401      0.1263
      9  C9        66.4460  -72.8140   26.2320 C.2   401  CMU401      0.3529
     10  N10       66.7670  -72.2440   27.3290 N.2   401  CMU401      0.1879
     11  N11       63.7780  -70.0350   26.8120 N.ar  401  CMU401     -0.1900
     12  C12       63.4280  -68.7360   26.5450 C.ar  401  CMU401      0.3713
     13  O13       63.6330  -67.8210   27.3220 O.2   401  CMU401     -0.2425
     14  N14       62.7570  -68.5170   25.3790 N.ar  401  CMU401     -0.1510
     15  C15       62.4490  -69.4900   24.4620 C.ar  401  CMU401      0.2949
     16  O16       61.8440  -69.1490   23.4250 O.2   401  CMU401     -0.2641
@<TRIPOS>BOND
     1    16    15    2
     2     1     2    1
     3     7     6    1
     4     7     8    1
     5    15     2   ar
     6    15    14   ar
     7     6     5    1
     8     2     3   ar
     9     8     9    1
    10    14    12   ar
    11     5     9    1
    12     5     4    1
    13     3     4    1
    14     3    11   ar
    15     9    10    2
    16    12    11   ar
    17    12    13    2
