@<TRIPOS>MOLECULE
/home/pku/3cl/gett_pdb/5RT6/5RT6_mol2/ligand/5RT6_05R.pdb
 17 17 0 0 0
SMALL
GASTEIGER

@<TRIPOS>ATOM
      1  CBE      -43.6800  -31.8130    2.3200 C.2   201  05R201      0.0914
      2  OBF      -44.2660  -32.8960    2.1960 O.co2 201  05R201     -0.8474
      3  CBG      -43.2010  -31.1910    0.9810 C.3   201  05R201      0.0213
      4  CBH      -43.7830  -29.8730    0.6970 C.ar  201  05R201     -0.0397
      5  CBI      -43.0300  -28.6790    0.8460 C.ar  201  05R201     -0.0567
      6  CBJ      -43.7110  -27.5220    0.5700 C.ar  201  05R201     -0.0417
      7  CBK      -44.9670  -27.4730    0.3260 C.ar  201  05R201      0.0593
      8 CLL       -45.7130  -25.9480    0.0410 Cl    201  05R201     -0.0820
      9  CBM      -45.6920  -28.5640    0.2370 C.ar  201  05R201      0.0595
     10 CLN       -47.3100  -28.5390   -0.1450 Cl    201  05R201     -0.0820
     11  CBO      -45.1230  -29.7590    0.4560 C.ar  201  05R201     -0.0384
     12  HBG      -42.2350  -31.1030    1.0090 H     201  05R201      0.0381
     13 HBGA      -43.4360  -31.7940    0.2590 H     201  05R201      0.0381
     14  OXT      -43.3640  -31.2330    3.3800 O.co2 201  05R201     -0.3087
     15  HBI      -42.1180  -28.6870    1.0270 H     201  05R201      0.0621
     16  HBJ      -43.2490  -26.7180    0.6370 H     201  05R201      0.0633
     17  HBO      -45.6390  -30.5290    0.3790 H     201  05R201      0.0635
@<TRIPOS>UNITY_ATOM_ATTR
2 1
charge -1
@<TRIPOS>BOND
     1    10     9    1
     2     8     7    1
     3     9     7   ar
     4     9    11   ar
     5    13     3    1
     6     7     6   ar
     7    17    11    1
     8    11     4   ar
     9     6    16    1
    10     6     5   ar
    11     4     5   ar
    12     4     3    1
    13     5    15    1
    14     3    12    1
    15     3     1    1
    16     2     1   ar
    17     1    14   ar
