@<TRIPOS>MOLECULE
/home/pku/3cl/gett_pdb/7M1Y/7M1Y_mol2/ligand/7M1Y_9JT.pdb
 16 17 0 0 0
SMALL
GASTEIGER

@<TRIPOS>ATOM
      1  C11       76.2250   31.6860   24.2130 C.ar  501  9JT501      0.0000
      2  C12       75.6560   32.9530   24.2840 C.ar  501  9JT501      0.0000
      3  C13       76.4470   34.0470   24.6010 C.ar  501  9JT501      0.0000
      4  C14       77.7920   33.8810   24.8710 C.ar  501  9JT501      0.0000
      5  C15       78.3550   32.6210   24.8180 C.ar  501  9JT501      0.0000
      6  O09       73.4670   31.4010   24.6140 O.2   501  9JT501      0.0000
      7  C08       74.0810   30.5120   24.0230 C.2   501  9JT501      0.0000
      8  C07       73.3400   29.3520   23.4040 C.ar  501  9JT501      0.0000
      9  C06       73.8010   28.6700   22.2570 C.ar  501  9JT501      0.0000
     10  C05       73.0610   27.6500   21.6950 C.ar  501  9JT501      0.0000
     11  C04       71.8470   27.2810   22.2510 C.ar  501  9JT501      0.0000
     12  C03       71.3600   27.9330   23.3700 C.ar  501  9JT501      0.0000
     13  C02       72.0930   28.9740   23.9480 C.ar  501  9JT501      0.0000
     14 SE1        71.4840   29.9390   25.5020 Se    501  9JT501      0.0000
     15  N10       75.4260   30.5720   23.8750 N.am  501  9JT501      0.0000
     16  C16       77.5760   31.5190   24.4900 C.ar  501  9JT501      0.0000
@<TRIPOS>BOND
     1    10    11   ar
     2    10     9   ar
     3    11    12   ar
     4     9     8   ar
     5    12    13   ar
     6     8    13   ar
     7     8     7    1
     8    15     7   am
     9    15     1    1
    10    13    14    1
    11     7     6    2
    12     1     2   ar
    13     1    16   ar
    14     2     3   ar
    15    16     5   ar
    16     3     4   ar
    17     5     4   ar
