@<TRIPOS>MOLECULE
/home/pku/3cl/gett_pdb/7TE0/7TE0_mol2/ligand/7TE0_4WI.pdb
 35 37 0 0 0
SMALL
GASTEIGER

@<TRIPOS>ATOM
      1  C8       -14.3070  -15.0180  -15.3870 C.2   401  4WI401      0.2410
      2  C3       -12.6450  -10.4570  -16.4680 C.2   401  4WI401      0.1171
      3  C1       -10.5130  -12.8220  -17.9110 C.2   401  4WI401      0.2597
      4  C13       -9.5770  -15.7150  -18.0440 C.2   401  4WI401      0.2458
      5  C21       -7.3440  -18.1100  -18.1220 C.2   401  4WI401      0.3371
      6  C6       -14.2880  -14.4350  -17.7030 C.3   401  4WI401      0.0326
      7  C7       -15.2240  -15.6220  -17.4490 C.3   401  4WI401      0.1156
      8  C10       -8.1070  -14.4980  -19.6630 C.3   401  4WI401      0.0939
      9  C5       -13.5220  -14.2150  -16.3910 C.3   401  4WI401      0.0821
     10  C9        -9.1000  -13.3370  -17.7530 C.3   401  4WI401      0.1535
     11  C11       -7.6000  -13.0620  -19.6630 C.3   401  4WI401      0.0220
     12  C12       -8.1080  -12.3630  -18.4020 C.3   401  4WI401      0.0289
     13  C18       -6.6280  -12.7830  -18.5180 C.3   401  4WI401      0.0037
     14  C19       -5.7110  -11.5620  -18.6310 C.3   401  4WI401      0.0001
     15  C20       -6.1610  -13.8630  -17.5270 C.3   401  4WI401      0.0001
     16  C16      -11.0780  -16.5520  -20.6150 C.3   401  4WI401      0.0022
     17  C17      -11.6470  -17.9770  -18.6460 C.3   401  4WI401      0.0022
     18  C23      -10.0750  -18.7860  -20.3650 C.3   401  4WI401      0.0022
     19  C4       -13.4600  -12.7460  -15.9870 C.3   401  4WI401      0.0371
     20  C2       -12.5340  -11.9070  -16.8870 C.3   401  4WI401      0.1386
     21  C14       -9.3140  -16.9400  -18.8810 C.3   401  4WI401      0.1714
     22  C22       -6.7580  -19.0610  -17.1080 C.3   401  4WI401      0.4711
     23  C15      -10.5310  -17.5520  -19.5990 C.3   401  4WI401      0.0269
     24  N5       -13.6440   -9.7630  -16.8100 N.2   401  4WI401     -0.1496
     25  N2       -15.2090  -15.7900  -16.0010 N.am  401  4WI401     -0.2054
     26  N3        -8.9650  -14.6020  -18.4790 N.am  401  4WI401     -0.2716
     27  N1       -11.1310  -12.3350  -16.8310 N.am  401  4WI401     -0.1996
     28  N4        -8.6590  -17.9270  -18.0560 N.am  401  4WI401     -0.1908
     29  O1       -14.1080  -14.9620  -14.1770 O.2   401  4WI401     -0.2734
     30  O2       -11.0750  -12.8700  -18.9990 O.2   401  4WI401     -0.2715
     31  O3       -10.2630  -15.7500  -17.0280 O.2   401  4WI401     -0.2730
     32  O4        -6.6290  -17.5540  -18.9400 O.2   401  4WI401     -0.2642
     33  F1        -5.4380  -19.1020  -17.2710 F     401  4WI401     -0.1620
     34  F2        -7.2790  -20.2820  -17.2230 F     401  4WI401     -0.1620
     35  F3        -7.0760  -18.6020  -15.9180 F     401  4WI401     -0.1620
@<TRIPOS>BOND
     1    16    23    1
     2    18    23    1
     3    11     8    1
     4    11    13    1
     5    11    12    1
     6     8    26    1
     7    23    21    1
     8    23    17    1
     9    30     3    2
    10    32     5    2
    11    21    28    1
    12    21     4    1
    13    14    13    1
    14    13    12    1
    15    13    15    1
    16    26     4   am
    17    26    10    1
    18    12    10    1
    19     5    28   am
    20     5    22    1
    21     4    31    2
    22     3    10    1
    23     3    27   am
    24     6     7    1
    25     6     9    1
    26     7    25    1
    27    33    22    1
    28    34    22    1
    29    22    35    1
    30    20    27    1
    31    20     2    1
    32    20    19    1
    33    24     2    2
    34     9    19    1
    35     9     1    1
    36    25     1   am
    37     1    29    2
