@<TRIPOS>MOLECULE
/home/pku/3cl/gett_pdb/6WLC/6WLC_mol2/ligand/6WLC_U5P.pdb
 21 22 0 0 0
SMALL
GASTEIGER

@<TRIPOS>ATOM
      1  N1        92.3640  -20.4890  -25.5720 N.ar  401  U5P401     -0.2534
      2  C2        90.9870  -20.5000  -25.6950 C.ar  401  U5P401      0.3546
      3  N3        90.3040  -19.9000  -24.6640 N.ar  401  U5P401     -0.1530
      4  C4        90.8500  -19.3170  -23.5370 C.ar  401  U5P401      0.2846
      5  C5        92.2830  -19.3520  -23.4790 C.ar  401  U5P401      0.0814
      6  C6        92.9760  -19.9310  -24.4730 C.ar  401  U5P401      0.0870
      7  O2        90.4190  -21.0030  -26.6550 O.2   401  U5P401     -0.2443
      8  O4        90.1060  -18.8250  -22.6870 O.2   401  U5P401     -0.2650
      9  C1'       93.1330  -21.1580  -26.6600 C.3   401  U5P401      0.2421
     10  C2'       93.3260  -20.2730  -27.8920 C.3   401  U5P401      0.2338
     11  O2'       93.3810  -21.1180  -29.0270 O.3   401  U5P401     -0.2155
     12  C3'       94.7040  -19.6930  -27.6300 C.3   401  U5P401      0.2161
     13  C4'       95.4340  -20.8670  -26.9960 C.3   401  U5P401      0.1803
     14  O3'       95.3350  -19.1960  -28.7970 O.3   401  U5P401     -0.2175
     15  O4'       94.4170  -21.4990  -26.1740 O.3   401  U5P401     -0.3306
     16  C5'       96.6270  -20.5050  -26.1520 C.3   401  U5P401      0.1859
     17  O5'       96.2390  -19.7040  -25.0470 O.3   401  U5P401     -0.2675
     18  P         97.3220  -18.9950  -24.1170 P.3   401  U5P401      0.5327
     19  O1P       98.1120  -18.1070  -25.0600 O.2   401  U5P401     -0.2224
     20  O2P       96.5320  -18.2960  -23.0250 O.3   401  U5P401     -0.1145
     21  O3P       98.1610  -20.1350  -23.5670 O.3   401  U5P401     -0.1145
@<TRIPOS>BOND
     1    11    10    1
     2    14    12    1
     3    10    12    1
     4    10     9    1
     5    12    13    1
     6    13    15    1
     7    13    16    1
     8     9    15    1
     9     9     1    1
    10     7     2    2
    11    16    17    1
    12     2     1   ar
    13     2     3   ar
    14     1     6   ar
    15    19    18    2
    16    17    18    1
    17     3     4   ar
    18     6     5   ar
    19    18    21    1
    20    18    20    1
    21     4     5   ar
    22     4     8    2
