XFF
  -OEChem-02242320043D

 74 75  0     1  0  0  0  0  0999 V2000
    1.7080    3.3600   -3.5370 C   0  0  0  0  0  0  0  0  0  0  0  0
    3.4880   -2.3310   -0.4090 C   0  0  2  0  0  0  0  0  0  0  0  0
   -2.2360    1.0640   -0.2730 C   0  0  0  0  0  0  0  0  0  0  0  0
    0.1420    1.1600   -0.7970 C   0  0  1  0  0  0  0  0  0  0  0  0
    0.3330    2.3850   -1.6930 C   0  0  0  0  0  0  0  0  0  0  0  0
    1.4060    2.0880   -2.7420 C   0  0  0  0  0  0  0  0  0  0  0  0
    0.9030    1.0000   -3.6920 C   0  0  0  0  0  0  0  0  0  0  0  0
    1.3950    0.9260    0.0080 C   0  0  0  0  0  0  0  0  0  0  0  0
    3.6710    0.0810    0.2170 C   0  0  2  0  0  0  0  0  0  0  0  0
    4.6080    1.2900    0.2690 C   0  0  1  0  0  0  0  0  0  0  0  0
    3.2050   -2.7850    1.0420 C   0  0  0  0  0  0  0  0  0  0  0  0
    3.1760   -4.3220    0.8900 C   0  0  0  0  0  0  0  0  0  0  0  0
    4.1870   -3.5150   -1.0390 C   0  0  0  0  0  0  0  0  0  0  0  0
    4.4020   -1.1040   -0.4170 C   0  0  0  0  0  0  0  0  0  0  0  0
   -4.6000    0.9870    0.0410 C   0  0  0  0  0  0  0  0  0  0  0  0
   -5.6550    1.4100    1.0650 C   0  0  0  0  0  0  0  0  0  0  0  0
   -5.3760    0.7150    2.4000 C   0  0  0  0  0  0  0  0  0  0  0  0
   -7.1300   -0.7920    0.1640 C   0  0  0  0  0  0  0  0  0  0  0  0
    3.8850    2.4330    0.7310 O   0  0  0  0  0  0  0  0  0  0  0  0
   -2.4180    0.4980   -1.3330 O   0  0  0  0  0  0  0  0  0  0  0  0
   -7.3230   -1.7040    1.1950 C   0  0  0  0  0  0  0  0  0  0  0  0
   -6.8720   -3.5040   -0.3170 C   0  0  0  0  0  0  0  0  0  0  0  0
   -5.6000    2.9260    1.2580 C   0  0  0  0  0  0  0  0  0  0  0  0
   -7.1940   -3.0570    0.9510 C   0  0  0  0  0  0  0  0  0  0  0  0
   -6.6790   -2.6000   -1.3460 C   0  0  0  0  0  0  0  0  0  0  0  0
   -6.8070   -1.2450   -1.1090 C   0  0  0  0  0  0  0  0  0  0  0  0
   -0.9850    1.3890    0.1100 N   0  0  0  0  0  0  0  0  0  0  0  0
    2.4910    0.4120   -0.5860 N   0  0  0  0  0  0  0  0  0  0  0  0
    4.0000   -4.6150   -0.2890 N   0  0  0  0  0  0  0  0  0  0  0  0
    4.8220   -3.4790   -2.0720 O   0  0  0  0  0  0  0  0  0  0  0  0
    1.4170    1.2000    1.1890 O   0  0  0  0  0  0  0  0  0  0  0  0
   -3.2820    1.3670    0.5170 O   0  0  0  0  0  0  0  0  0  0  0  0
   -7.3010    0.9350    0.4700 S   0  0  0  0  0  0  0  0  0  0  0  0
    5.9800    0.9430    1.4030 S   0  0  0  0  0  0  0  0  0  0  0  0
    2.0670    4.1350   -2.8600 H   0  0  0  0  0  0  0  0  0  0  0  0
    2.4730    3.1480   -4.2840 H   0  0  0  0  0  0  0  0  0  0  0  0
    0.8000    3.7020   -4.0330 H   0  0  0  0  0  0  0  0  0  0  0  0
    2.5560   -2.1140   -0.9300 H   0  0  0  0  0  0  0  0  0  0  0  0
   -0.0610    0.2860   -1.4150 H   0  0  0  0  0  0  0  0  0  0  0  0
   -0.6070    2.6210   -2.1920 H   0  0  0  0  0  0  0  0  0  0  0  0
    0.6440    3.2350   -1.0850 H   0  0  0  0  0  0  0  0  0  0  0  0
    2.3140    1.7460   -2.2460 H   0  0  0  0  0  0  0  0  0  0  0  0
    0.0370    1.3690   -4.2420 H   0  0  0  0  0  0  0  0  0  0  0  0
    1.6940    0.7370   -4.3950 H   0  0  0  0  0  0  0  0  0  0  0  0
    0.6200    0.1180   -3.1180 H   0  0  0  0  0  0  0  0  0  0  0  0
    3.3610   -0.1820    1.2280 H   0  0  0  0  0  0  0  0  0  0  0  0
    5.0010    1.4880   -0.7280 H   0  0  0  0  0  0  0  0  0  0  0  0
    4.0060   -2.4740    1.7120 H   0  0  0  0  0  0  0  0  0  0  0  0
    2.2420   -2.4090    1.3870 H   0  0  0  0  0  0  0  0  0  0  0  0
    3.6020   -4.7960    1.7750 H   0  0  0  0  0  0  0  0  0  0  0  0
    2.1540   -4.6670    0.7330 H   0  0  0  0  0  0  0  0  0  0  0  0
    5.3060   -1.3200    0.1540 H   0  0  0  0  0  0  0  0  0  0  0  0
    4.6710   -0.8580   -1.4440 H   0  0  0  0  0  0  0  0  0  0  0  0
   -4.6400   -0.0940   -0.0970 H   0  0  0  0  0  0  0  0  0  0  0  0
   -4.7990    1.4820   -0.9100 H   0  0  0  0  0  0  0  0  0  0  0  0
   -4.3600    0.9430    2.7230 H   0  0  0  0  0  0  0  0  0  0  0  0
   -6.0830    1.0710    3.1490 H   0  0  0  0  0  0  0  0  0  0  0  0
   -5.4860   -0.3630    2.2790 H   0  0  0  0  0  0  0  0  0  0  0  0
    3.1350    2.6770    0.1720 H   0  0  0  0  0  0  0  0  0  0  0  0
   -7.5740   -1.3550    2.1860 H   0  0  0  0  0  0  0  0  0  0  0  0
   -6.7710   -4.5630   -0.5050 H   0  0  0  0  0  0  0  0  0  0  0  0
   -5.8800    3.4210    0.3290 H   0  0  0  0  0  0  0  0  0  0  0  0
   -6.2920    3.2170    2.0480 H   0  0  0  0  0  0  0  0  0  0  0  0
   -4.5870    3.2210    1.5360 H   0  0  0  0  0  0  0  0  0  0  0  0
   -7.3440   -3.7660    1.7510 H   0  0  0  0  0  0  0  0  0  0  0  0
   -6.4280   -2.9530   -2.3350 H   0  0  0  0  0  0  0  0  0  0  0  0
   -6.6560   -0.5390   -1.9120 H   0  0  0  0  0  0  0  0  0  0  0  0
   -0.8310    1.7740    0.9870 H   0  0  0  0  0  0  0  0  0  0  0  0
    2.4980    0.2620   -1.5440 H   0  0  0  0  0  0  0  0  0  0  0  0
    4.3630   -5.4890   -0.4990 H   0  0  0  0  0  0  0  0  0  0  0  0
    6.8830    2.0390    1.4440 O   0  0  0  0  0  0  0  0  0  0  0  0
    5.5000    0.3450    2.5990 O   0  0  0  0  0  0  0  0  0  0  0  0
    6.7670   -0.1660    0.7190 O   0  0  0  0  0  0  0  0  0  0  0  0
    7.5430   -0.4610    1.2150 H   0  0  0  0  0  0  0  0  0  0  0  0
 21 24  2  0  0  0  0
 18 21  1  0  0  0  0
 22 24  1  0  0  0  0
 18 33  1  0  0  0  0
 16 33  1  0  0  0  0
 18 26  2  0  0  0  0
 22 25  2  0  0  0  0
 25 26  1  0  0  0  0
 13 30  2  0  0  0  0
 15 16  1  0  0  0  0
 15 32  1  0  0  0  0
 13 29  1  0  0  0  0
  2 13  1  0  0  0  0
 16 23  1  0  0  0  0
 16 17  1  0  0  0  0
 12 29  1  0  0  0  0
  3 20  2  0  0  0  0
  3 32  1  0  0  0  0
  2 14  1  0  0  0  0
  2 11  1  0  0  0  0
  3 27  1  0  0  0  0
 11 12  1  0  0  0  0
  9 14  1  0  0  0  0
  1  6  1  0  0  0  0
  4 27  1  0  0  0  0
 10 34  1  0  0  0  0
  4  8  1  0  0  0  0
  4  5  1  0  0  0  0
  8 28  1  0  0  0  0
  9 28  1  0  0  0  0
  8 31  2  0  0  0  0
  9 10  1  0  0  0  0
  5  6  1  0  0  0  0
  6  7  1  0  0  0  0
 10 19  1  0  0  0  0
  1 35  1  0  0  0  0
  1 36  1  0  0  0  0
  1 37  1  0  0  0  0
  2 38  1  0  0  0  0
  4 39  1  0  0  0  0
  5 40  1  0  0  0  0
  5 41  1  0  0  0  0
  6 42  1  0  0  0  0
  7 43  1  0  0  0  0
  7 44  1  0  0  0  0
  7 45  1  0  0  0  0
  9 46  1  0  0  0  0
 10 47  1  0  0  0  0
 11 48  1  0  0  0  0
 11 49  1  0  0  0  0
 12 50  1  0  0  0  0
 12 51  1  0  0  0  0
 14 52  1  0  0  0  0
 14 53  1  0  0  0  0
 15 54  1  0  0  0  0
 15 55  1  0  0  0  0
 17 56  1  0  0  0  0
 17 57  1  0  0  0  0
 17 58  1  0  0  0  0
 19 59  1  0  0  0  0
 21 60  1  0  0  0  0
 22 61  1  0  0  0  0
 23 62  1  0  0  0  0
 23 63  1  0  0  0  0
 23 64  1  0  0  0  0
 24 65  1  0  0  0  0
 25 66  1  0  0  0  0
 26 67  1  0  0  0  0
 27 68  1  0  0  0  0
 28 69  1  0  0  0  0
 29 70  1  0  0  0  0
 34 71  2  0  0  0  0
 34 72  2  0  0  0  0
 34 73  1  0  0  0  0
 73 74  1  0  0  0  0
M  END
> <OPENEYE_ISO_SMILES>
CC(C)C[C@@H](C(=O)N[C@@H](C[C@@H]1CCNC1=O)[C@@H](O)S(=O)(=O)O)NC(=O)OCC(C)(C)Sc2ccccc2

> <OPENEYE_INCHI>
InChI=1S/C24H37N3O8S2/c1-15(2)12-18(27-23(31)35-14-24(3,4)36-17-8-6-5-7-9-17)21(29)26-19(22(30)37(32,33)34)13-16-10-11-25-20(16)28/h5-9,15-16,18-19,22,30H,10-14H2,1-4H3,(H,25,28)(H,26,29)(H,27,31)(H,32,33,34)/t16-,18-,19-,22-/m0/s1

> <OPENEYE_INCHIKEY>
AGWHKDXHVADVIY-FUOQNJDISA-N

> <FORMULA>
C24H37N3O8S2

$$$$
