XFR
  -OEChem-02242320043D

 74 75  0     1  0  0  0  0  0999 V2000
   -4.0230   -2.1190   -1.6440 C   0  0  0  0  0  0  0  0  0  0  0  0
   -6.0050   -3.3290   -1.6680 C   0  0  0  0  0  0  0  0  0  0  0  0
   -6.3250   -1.9860   -2.3590 C   0  0  0  0  0  0  0  0  0  0  0  0
   -0.0620   -3.2240    2.0160 C   0  0  0  0  0  0  0  0  0  0  0  0
   -5.1190   -1.1170   -1.9320 C   0  0  1  0  0  0  0  0  0  0  0  0
    1.6640   -0.6910    0.3210 C   0  0  0  0  0  0  0  0  0  0  0  0
   -0.7550   -0.6830    0.6120 C   0  0  1  0  0  0  0  0  0  0  0  0
   -0.9660   -0.8960    2.1120 C   0  0  0  0  0  0  0  0  0  0  0  0
    0.1110   -1.8420    2.6490 C   0  0  0  0  0  0  0  0  0  0  0  0
   -0.0230   -1.9570    4.1690 C   0  0  0  0  0  0  0  0  0  0  0  0
   -1.8840    0.1480    0.0600 C   0  0  0  0  0  0  0  0  0  0  0  0
   -4.2600    0.5590   -0.2890 C   0  0  2  0  0  0  0  0  0  0  0  0
   -4.6610    1.5010    0.8480 C   0  0  2  0  0  0  0  0  0  0  0  0
   -5.4570   -0.3150   -0.6730 C   0  0  0  0  0  0  0  0  0  0  0  0
    4.0290   -0.8730    0.0540 C   0  0  0  0  0  0  0  0  0  0  0  0
    5.2480    0.0210   -0.1800 C   0  0  0  0  0  0  0  0  0  0  0  0
   -5.2200    0.7410    1.9210 O   0  0  0  0  0  0  0  0  0  0  0  0
    1.6450   -1.9000    0.4420 O   0  0  0  0  0  0  0  0  0  0  0  0
    0.5160    0.0110    0.3910 N   0  0  0  0  0  0  0  0  0  0  0  0
   -3.1540   -0.2950    0.1500 N   0  0  0  0  0  0  0  0  0  0  0  0
   -4.5470   -3.3490   -1.5060 N   0  0  0  0  0  0  0  0  0  0  0  0
   -2.8440   -1.8520   -1.5550 O   0  0  0  0  0  0  0  0  0  0  0  0
   -1.6500    1.2150   -0.4670 O   0  0  0  0  0  0  0  0  0  0  0  0
    2.8320   -0.0530    0.1180 O   0  0  0  0  0  0  0  0  0  0  0  0
   -5.8910    2.6890    0.2430 S   0  0  0  0  0  0  0  0  0  0  0  0
    5.0780    0.7800   -1.4980 C   0  0  0  0  0  0  0  0  0  0  0  0
    5.3760    1.0210    0.9710 C   0  0  0  0  0  0  0  0  0  0  0  0
    6.7430   -1.0030   -0.2610 S   0  0  0  0  0  0  0  0  0  0  0  0
    8.0280    0.1860   -0.4640 C   0  0  0  0  0  0  0  0  0  0  0  0
    7.7160    1.5360   -0.5720 C   0  0  0  0  0  0  0  0  0  0  0  0
    8.7260    2.4640   -0.7310 C   0  0  0  0  0  0  0  0  0  0  0  0
   10.0450    2.0530   -0.7830 C   0  0  0  0  0  0  0  0  0  0  0  0
   10.3580    0.7100   -0.6750 C   0  0  0  0  0  0  0  0  0  0  0  0
    9.3550   -0.2240   -0.5100 C   0  0  0  0  0  0  0  0  0  0  0  0
   -6.4930   -3.3790   -0.6950 H   0  0  0  0  0  0  0  0  0  0  0  0
   -6.3280   -4.1620   -2.2930 H   0  0  0  0  0  0  0  0  0  0  0  0
   -6.3580   -2.1020   -3.4420 H   0  0  0  0  0  0  0  0  0  0  0  0
   -7.2600   -1.5680   -1.9860 H   0  0  0  0  0  0  0  0  0  0  0  0
    0.0330   -3.1420    0.9330 H   0  0  0  0  0  0  0  0  0  0  0  0
    0.7050   -3.8980    2.3980 H   0  0  0  0  0  0  0  0  0  0  0  0
   -1.0480   -3.6170    2.2650 H   0  0  0  0  0  0  0  0  0  0  0  0
   -4.8230   -0.4490   -2.7410 H   0  0  0  0  0  0  0  0  0  0  0  0
   -0.7340   -1.6490    0.1070 H   0  0  0  0  0  0  0  0  0  0  0  0
   -0.8980    0.0610    2.6280 H   0  0  0  0  0  0  0  0  0  0  0  0
   -1.9500   -1.3320    2.2830 H   0  0  0  0  0  0  0  0  0  0  0  0
    1.0970   -1.4490    2.4000 H   0  0  0  0  0  0  0  0  0  0  0  0
   -1.0090   -2.3500    4.4180 H   0  0  0  0  0  0  0  0  0  0  0  0
    0.7440   -2.6310    4.5510 H   0  0  0  0  0  0  0  0  0  0  0  0
    0.1000   -0.9730    4.6200 H   0  0  0  0  0  0  0  0  0  0  0  0
   -3.9460    1.1450   -1.1530 H   0  0  0  0  0  0  0  0  0  0  0  0
   -3.7810    2.0370    1.2020 H   0  0  0  0  0  0  0  0  0  0  0  0
   -6.3220    0.3190   -0.8670 H   0  0  0  0  0  0  0  0  0  0  0  0
   -5.6840   -0.9990    0.1440 H   0  0  0  0  0  0  0  0  0  0  0  0
    3.9380   -1.5850   -0.7660 H   0  0  0  0  0  0  0  0  0  0  0  0
    4.1500   -1.4130    0.9930 H   0  0  0  0  0  0  0  0  0  0  0  0
   -4.6160    0.0840    2.2940 H   0  0  0  0  0  0  0  0  0  0  0  0
    0.5310    0.9760    0.2950 H   0  0  0  0  0  0  0  0  0  0  0  0
   -3.3350   -1.1780    0.5070 H   0  0  0  0  0  0  0  0  0  0  0  0
   -4.0270   -4.1480   -1.3230 H   0  0  0  0  0  0  0  0  0  0  0  0
    4.4320    1.6430   -1.3390 H   0  0  0  0  0  0  0  0  0  0  0  0
    6.0530    1.1160   -1.8520 H   0  0  0  0  0  0  0  0  0  0  0  0
    4.6290    0.1220   -2.2410 H   0  0  0  0  0  0  0  0  0  0  0  0
    5.3340    0.4880    1.9210 H   0  0  0  0  0  0  0  0  0  0  0  0
    6.3270    1.5480    0.8910 H   0  0  0  0  0  0  0  0  0  0  0  0
    4.5570    1.7390    0.9210 H   0  0  0  0  0  0  0  0  0  0  0  0
    6.6860    1.8580   -0.5330 H   0  0  0  0  0  0  0  0  0  0  0  0
    8.4850    3.5140   -0.8160 H   0  0  0  0  0  0  0  0  0  0  0  0
   10.8320    2.7810   -0.9070 H   0  0  0  0  0  0  0  0  0  0  0  0
   11.3900    0.3920   -0.7160 H   0  0  0  0  0  0  0  0  0  0  0  0
    9.6010   -1.2720   -0.4210 H   0  0  0  0  0  0  0  0  0  0  0  0
   -5.2480    3.3060   -0.9910 O   0  0  0  0  0  0  0  0  0  0  0  0
   -7.0340    2.0110   -0.2590 O   0  0  0  0  0  0  0  0  0  0  0  0
   -6.0230    3.7750    1.1500 O   0  0  0  0  0  0  0  0  0  0  0  0
   -5.7970    3.9710   -1.4290 H   0  0  0  0  0  0  0  0  0  0  0  0
 30 31  2  0  0  0  0
 31 32  1  0  0  0  0
 29 30  1  0  0  0  0
 32 33  2  0  0  0  0
 28 29  1  0  0  0  0
 29 34  2  0  0  0  0
 16 28  1  0  0  0  0
 33 34  1  0  0  0  0
  1 22  2  0  0  0  0
 15 16  1  0  0  0  0
 15 24  1  0  0  0  0
 16 27  1  0  0  0  0
 16 26  1  0  0  0  0
  1 21  1  0  0  0  0
  1  5  1  0  0  0  0
  2 21  1  0  0  0  0
  6 18  2  0  0  0  0
  5 14  1  0  0  0  0
  3  5  1  0  0  0  0
  6 24  1  0  0  0  0
  6 19  1  0  0  0  0
  2  3  1  0  0  0  0
  9 10  1  0  0  0  0
 12 14  1  0  0  0  0
 13 25  1  0  0  0  0
  7 19  1  0  0  0  0
 12 20  1  0  0  0  0
 11 20  1  0  0  0  0
  7 11  1  0  0  0  0
  7  8  1  0  0  0  0
 12 13  1  0  0  0  0
  8  9  1  0  0  0  0
  4  9  1  0  0  0  0
 11 23  2  0  0  0  0
 13 17  1  0  0  0  0
  2 35  1  0  0  0  0
  2 36  1  0  0  0  0
  3 37  1  0  0  0  0
  3 38  1  0  0  0  0
  4 39  1  0  0  0  0
  4 40  1  0  0  0  0
  4 41  1  0  0  0  0
  5 42  1  0  0  0  0
  7 43  1  0  0  0  0
  8 44  1  0  0  0  0
  8 45  1  0  0  0  0
  9 46  1  0  0  0  0
 10 47  1  0  0  0  0
 10 48  1  0  0  0  0
 10 49  1  0  0  0  0
 12 50  1  0  0  0  0
 13 51  1  0  0  0  0
 14 52  1  0  0  0  0
 14 53  1  0  0  0  0
 15 54  1  0  0  0  0
 15 55  1  0  0  0  0
 17 56  1  0  0  0  0
 19 57  1  0  0  0  0
 20 58  1  0  0  0  0
 21 59  1  0  0  0  0
 26 60  1  0  0  0  0
 26 61  1  0  0  0  0
 26 62  1  0  0  0  0
 27 63  1  0  0  0  0
 27 64  1  0  0  0  0
 27 65  1  0  0  0  0
 30 66  1  0  0  0  0
 31 67  1  0  0  0  0
 32 68  1  0  0  0  0
 33 69  1  0  0  0  0
 34 70  1  0  0  0  0
 25 71  1  0  0  0  0
 25 72  2  0  0  0  0
 25 73  2  0  0  0  0
 71 74  1  0  0  0  0
M  END
> <OPENEYE_ISO_SMILES>
CC(C)C[C@@H](C(=O)N[C@@H](C[C@@H]1CCNC1=O)[C@H](O)S(=O)(=O)O)NC(=O)OCC(C)(C)Sc2ccccc2

> <OPENEYE_INCHI>
InChI=1S/C24H37N3O8S2/c1-15(2)12-18(27-23(31)35-14-24(3,4)36-17-8-6-5-7-9-17)21(29)26-19(22(30)37(32,33)34)13-16-10-11-25-20(16)28/h5-9,15-16,18-19,22,30H,10-14H2,1-4H3,(H,25,28)(H,26,29)(H,27,31)(H,32,33,34)/t16-,18-,19-,22+/m0/s1

> <OPENEYE_INCHIKEY>
AGWHKDXHVADVIY-JLEJFLCFSA-N

> <FORMULA>
C24H37N3O8S2

$$$$
