DMS
  -OEChem-02242320023D

 10  9  0     0  0  0  0  0  0999 V2000
    0.1540   -0.3710    0.0000 S   0  0  0  0  0  0  0  0  0  0  0  0
    1.3900    0.3310    0.0010 O   0  0  0  0  0  0  0  0  0  0  0  0
   -0.8640    0.1960    1.3890 C   0  0  0  0  0  0  0  0  0  0  0  0
   -0.8620    0.1960   -1.3900 C   0  0  0  0  0  0  0  0  0  0  0  0
   -0.3810   -0.0730    2.3280 H   0  0  0  0  0  0  0  0  0  0  0  0
   -0.9780    1.2790    1.3370 H   0  0  0  0  0  0  0  0  0  0  0  0
   -1.8450   -0.2750    1.3360 H   0  0  0  0  0  0  0  0  0  0  0  0
   -0.3780   -0.0720   -2.3280 H   0  0  0  0  0  0  0  0  0  0  0  0
   -1.8430   -0.2750   -1.3390 H   0  0  0  0  0  0  0  0  0  0  0  0
   -0.9770    1.2790   -1.3380 H   0  0  0  0  0  0  0  0  0  0  0  0
  1  2  2  0  0  0  0
  1  3  1  0  0  0  0
  1  4  1  0  0  0  0
  3  5  1  0  0  0  0
  3  6  1  0  0  0  0
  3  7  1  0  0  0  0
  4  8  1  0  0  0  0
  4  9  1  0  0  0  0
  4 10  1  0  0  0  0
M  END
> <OPENEYE_ISO_SMILES>
CS(=O)C

> <OPENEYE_INCHI>
InChI=1S/C2H6OS/c1-4(2)3/h1-2H3

> <OPENEYE_INCHIKEY>
IAZDPXIOMUYVGZ-UHFFFAOYSA-N

> <FORMULA>
C2H6OS

$$$$
