UHV
  -OEChem-02242320043D

 63 65  0     1  0  0  0  0  0999 V2000
   -1.2810    1.6690   -0.0340 N   0  0  0  0  0  0  0  0  0  0  0  0
    2.9830   -1.6050   -1.0460 N   0  0  0  0  0  0  0  0  0  0  0  0
   -0.2320    1.0490   -0.6100 C   0  0  0  0  0  0  0  0  0  0  0  0
   -2.5710    1.1430   -0.1790 C   0  0  0  0  0  0  0  0  0  0  0  0
   -3.5240    1.3590    0.8080 C   0  0  0  0  0  0  0  0  0  0  0  0
   -3.1710    2.1610    2.0330 C   0  0  0  0  0  0  0  0  0  0  0  0
   -4.7960    0.8400    0.6650 C   0  0  0  0  0  0  0  0  0  0  0  0
   -6.6410   -1.1550   -1.7930 C   0  0  0  0  0  0  0  0  0  0  0  0
    1.4390    1.6660    1.0880 C   0  0  0  0  0  0  0  0  0  0  0  0
    1.9820    1.7730    3.7510 C   0  0  0  0  0  0  0  0  0  0  0  0
    0.8460    2.6630    1.8490 C   0  0  0  0  0  0  0  0  0  0  0  0
    1.1450   -1.3750    0.1080 C   0  0  0  0  0  0  0  0  0  0  0  0
    0.9160   -3.8180    0.8230 C   0  0  0  0  0  0  0  0  0  0  0  0
   -0.5000   -4.0090    0.2750 C   0  0  0  0  0  0  0  0  0  0  0  0
    1.7320   -5.0890    0.5810 C   0  0  0  0  0  0  0  0  0  0  0  0
   -0.4120    0.0710   -1.3050 O   0  0  0  0  0  0  0  0  0  0  0  0
    1.1650    1.5710   -0.3910 C   0  0  1  0  0  0  0  0  0  0  0  0
    1.1270    2.7120    3.2050 C   0  0  0  0  0  0  0  0  0  0  0  0
    2.5330    0.8430    2.9960 N   0  0  0  0  0  0  0  0  0  0  0  0
    2.2880    0.7660    1.7020 C   0  0  0  0  0  0  0  0  0  0  0  0
    2.1300    0.6570   -1.0080 N   0  0  0  0  0  0  0  0  0  0  0  0
    2.1120   -0.7000   -0.6840 C   0  0  0  0  0  0  0  0  0  0  0  0
    1.5740   -2.6570    0.1230 C   0  0  0  0  0  0  0  0  0  0  0  0
    0.8470   -3.5350    2.3250 C   0  0  0  0  0  0  0  0  0  0  0  0
    2.6980   -2.6940   -0.6070 O   0  0  0  0  0  0  0  0  0  0  0  0
    3.0340    1.1280   -1.8900 C   0  0  0  0  0  0  0  0  0  0  0  0
    3.7700    0.3590   -2.4720 O   0  0  0  0  0  0  0  0  0  0  0  0
    3.1320    2.6080   -2.1510 C   0  0  0  0  0  0  0  0  0  0  0  0
    4.1780    2.8660   -3.2370 C   0  0  0  0  0  0  0  0  0  0  0  0
   -2.8990    0.4090   -1.3110 C   0  0  0  0  0  0  0  0  0  0  0  0
   -4.1710   -0.1100   -1.4530 C   0  0  0  0  0  0  0  0  0  0  0  0
   -5.1210    0.1020   -0.4640 C   0  0  0  0  0  0  0  0  0  0  0  0
   -6.3730   -0.4100   -0.6030 O   0  0  0  0  0  0  0  0  0  0  0  0
   -1.1420    2.4770    0.4830 H   0  0  0  0  0  0  0  0  0  0  0  0
   -3.3840    3.2150    1.8520 H   0  0  0  0  0  0  0  0  0  0  0  0
   -3.7620    1.8110    2.8790 H   0  0  0  0  0  0  0  0  0  0  0  0
   -2.1110    2.0380    2.2560 H   0  0  0  0  0  0  0  0  0  0  0  0
   -5.5370    1.0090    1.4320 H   0  0  0  0  0  0  0  0  0  0  0  0
   -7.6730   -1.5050   -1.7780 H   0  0  0  0  0  0  0  0  0  0  0  0
   -6.4860   -0.5170   -2.6640 H   0  0  0  0  0  0  0  0  0  0  0  0
   -5.9670   -2.0100   -1.8450 H   0  0  0  0  0  0  0  0  0  0  0  0
    2.2070    1.8050    4.8070 H   0  0  0  0  0  0  0  0  0  0  0  0
    0.1820    3.3830    1.3950 H   0  0  0  0  0  0  0  0  0  0  0  0
    0.2700   -0.9600    0.5860 H   0  0  0  0  0  0  0  0  0  0  0  0
   -0.9750   -4.8490    0.7810 H   0  0  0  0  0  0  0  0  0  0  0  0
   -1.0820   -3.1040    0.4470 H   0  0  0  0  0  0  0  0  0  0  0  0
   -0.4500   -4.2110   -0.7960 H   0  0  0  0  0  0  0  0  0  0  0  0
    1.7820   -5.2910   -0.4890 H   0  0  0  0  0  0  0  0  0  0  0  0
    2.7410   -4.9530    0.9720 H   0  0  0  0  0  0  0  0  0  0  0  0
    1.2570   -5.9290    1.0870 H   0  0  0  0  0  0  0  0  0  0  0  0
    1.2590    2.5580   -0.8420 H   0  0  0  0  0  0  0  0  0  0  0  0
    0.6830    3.4740    3.8280 H   0  0  0  0  0  0  0  0  0  0  0  0
    2.7570   -0.0110    1.1150 H   0  0  0  0  0  0  0  0  0  0  0  0
    0.3710   -4.3750    2.8320 H   0  0  0  0  0  0  0  0  0  0  0  0
    1.8550   -3.3990    2.7160 H   0  0  0  0  0  0  0  0  0  0  0  0
    0.2650   -2.6290    2.4980 H   0  0  0  0  0  0  0  0  0  0  0  0
    2.1640    2.9830   -2.4830 H   0  0  0  0  0  0  0  0  0  0  0  0
    3.4260    3.1210   -1.2350 H   0  0  0  0  0  0  0  0  0  0  0  0
    5.1460    2.4910   -2.9060 H   0  0  0  0  0  0  0  0  0  0  0  0
    3.8850    2.3540   -4.1540 H   0  0  0  0  0  0  0  0  0  0  0  0
    4.2490    3.9380   -3.4270 H   0  0  0  0  0  0  0  0  0  0  0  0
   -2.1600    0.2440   -2.0810 H   0  0  0  0  0  0  0  0  0  0  0  0
   -4.4260   -0.6810   -2.3330 H   0  0  0  0  0  0  0  0  0  0  0  0
 10 19  2  0  0  0  0
 10 18  1  0  0  0  0
 19 20  1  0  0  0  0
 11 18  2  0  0  0  0
  9 20  2  0  0  0  0
  9 11  1  0  0  0  0
 28 29  1  0  0  0  0
  9 17  1  0  0  0  0
  3 16  2  0  0  0  0
 26 28  1  0  0  0  0
 26 27  2  0  0  0  0
 21 26  1  0  0  0  0
  3 17  1  0  0  0  0
 17 21  1  0  0  0  0
  1  3  1  0  0  0  0
 21 22  1  0  0  0  0
 13 24  1  0  0  0  0
 12 22  1  0  0  0  0
 12 23  2  0  0  0  0
  2 22  2  0  0  0  0
 30 31  2  0  0  0  0
  4 30  1  0  0  0  0
  1  4  1  0  0  0  0
 31 32  1  0  0  0  0
  4  5  2  0  0  0  0
 13 23  1  0  0  0  0
 23 25  1  0  0  0  0
 13 14  1  0  0  0  0
 13 15  1  0  0  0  0
  2 25  1  0  0  0  0
 32 33  1  0  0  0  0
  7 32  2  0  0  0  0
  5  7  1  0  0  0  0
  5  6  1  0  0  0  0
  8 33  1  0  0  0  0
  1 34  1  0  0  0  0
  6 35  1  0  0  0  0
  6 36  1  0  0  0  0
  6 37  1  0  0  0  0
  7 38  1  0  0  0  0
  8 39  1  0  0  0  0
  8 40  1  0  0  0  0
  8 41  1  0  0  0  0
 10 42  1  0  0  0  0
 11 43  1  0  0  0  0
 12 44  1  0  0  0  0
 14 45  1  0  0  0  0
 14 46  1  0  0  0  0
 14 47  1  0  0  0  0
 15 48  1  0  0  0  0
 15 49  1  0  0  0  0
 15 50  1  0  0  0  0
 17 51  1  0  0  0  0
 18 52  1  0  0  0  0
 20 53  1  0  0  0  0
 24 54  1  0  0  0  0
 24 55  1  0  0  0  0
 24 56  1  0  0  0  0
 28 57  1  0  0  0  0
 28 58  1  0  0  0  0
 29 59  1  0  0  0  0
 29 60  1  0  0  0  0
 29 61  1  0  0  0  0
 30 62  1  0  0  0  0
 31 63  1  0  0  0  0
M  END
> <OPENEYE_ISO_SMILES>
CCC(=O)N(c1cc(on1)C(C)(C)C)[C@H](c2cccnc2)C(=O)Nc3ccc(cc3C)OC

> <OPENEYE_INCHI>
InChI=1S/C25H30N4O4/c1-7-22(30)29(21-14-20(33-28-21)25(3,4)5)23(17-9-8-12-26-15-17)24(31)27-19-11-10-18(32-6)13-16(19)2/h8-15,23H,7H2,1-6H3,(H,27,31)/t23-/m1/s1

> <OPENEYE_INCHIKEY>
UCJCNZJAAQBBMU-HSZRJFAPSA-N

> <FORMULA>
C25H30N4O4

$$$$
