S63
  -OEChem-02242320043D

 38 40  0     1  0  0  0  0  0999 V2000
    3.7180    2.1250   -0.0500 C   0  0  0  0  0  0  0  0  0  0  0  0
    2.6860    1.2760    0.3100 C   0  0  0  0  0  0  0  0  0  0  0  0
    2.8790   -0.0990    0.1440 C   0  0  0  0  0  0  0  0  0  0  0  0
    4.0990   -0.5690   -0.3770 C   0  0  0  0  0  0  0  0  0  0  0  0
    2.7900   -2.3490    0.0340 C   0  0  0  0  0  0  0  0  0  0  0  0
    2.0580   -1.2840    0.3960 C   0  0  0  0  0  0  0  0  0  0  0  0
    0.6590   -1.3050    0.9570 C   0  0  0  0  0  0  0  0  0  0  0  0
    4.8910    1.5920   -0.5610 C   0  0  0  0  0  0  0  0  0  0  0  0
   -5.1520   -1.2610   -0.1800 C   0  0  0  0  0  0  0  0  0  0  0  0
   -3.9480   -0.3220   -0.0790 C   0  0  1  0  0  0  0  0  0  0  0  0
   -4.3050    1.0440   -0.6050 C   0  0  0  0  0  0  0  0  0  0  0  0
   -3.4630   -0.2270    1.3860 C   0  0  0  0  0  0  0  0  0  0  0  0
   -2.2990   -1.2480    1.4310 C   0  0  0  0  0  0  0  0  0  0  0  0
   -0.3330   -1.1030   -0.1600 C   0  0  0  0  0  0  0  0  0  0  0  0
   -2.7530   -0.9000   -0.8590 C   0  0  0  0  0  0  0  0  0  0  0  0
   -1.6530   -1.0850    0.1070 N   0  0  0  0  0  0  0  0  0  0  0  0
    4.0110   -1.9390   -0.4300 N   0  0  0  0  0  0  0  0  0  0  0  0
    5.0530    0.2930   -0.7040 N   0  0  0  0  0  0  0  0  0  0  0  0
   -5.3060    1.7390   -0.0420 O   0  0  0  0  0  0  0  0  0  0  0  0
   -3.6900    1.5140   -1.5330 O   0  0  0  0  0  0  0  0  0  0  0  0
    0.0580   -0.9560   -1.2980 O   0  0  0  0  0  0  0  0  0  0  0  0
    1.1970    1.8990    0.9490 Cl  0  0  0  0  0  0  0  0  0  0  0  0
    3.6090    3.1930    0.0630 H   0  0  0  0  0  0  0  0  0  0  0  0
    2.4640   -3.3770    0.0980 H   0  0  0  0  0  0  0  0  0  0  0  0
    0.4750   -2.2660    1.4380 H   0  0  0  0  0  0  0  0  0  0  0  0
    0.5490   -0.5050    1.6890 H   0  0  0  0  0  0  0  0  0  0  0  0
    5.6940    2.2570   -0.8410 H   0  0  0  0  0  0  0  0  0  0  0  0
   -4.8910   -2.2330    0.2380 H   0  0  0  0  0  0  0  0  0  0  0  0
   -5.9890   -0.8390    0.3760 H   0  0  0  0  0  0  0  0  0  0  0  0
   -5.4340   -1.3790   -1.2260 H   0  0  0  0  0  0  0  0  0  0  0  0
   -3.1040    0.7780    1.6090 H   0  0  0  0  0  0  0  0  0  0  0  0
   -4.2580   -0.5130    2.0750 H   0  0  0  0  0  0  0  0  0  0  0  0
   -1.6010   -1.0010    2.2310 H   0  0  0  0  0  0  0  0  0  0  0  0
   -2.6800   -2.2620    1.5510 H   0  0  0  0  0  0  0  0  0  0  0  0
   -3.0250   -1.8600   -1.2990 H   0  0  0  0  0  0  0  0  0  0  0  0
   -2.4490   -0.2060   -1.6420 H   0  0  0  0  0  0  0  0  0  0  0  0
    4.7120   -2.5290   -0.7490 H   0  0  0  0  0  0  0  0  0  0  0  0
   -5.4980    2.6110   -0.4140 H   0  0  0  0  0  0  0  0  0  0  0  0
  1  8  2  0  0  0  0
  8 18  1  0  0  0  0
  1  2  1  0  0  0  0
  4 18  2  0  0  0  0
  2 22  1  0  0  0  0
  2  3  2  0  0  0  0
  3  4  1  0  0  0  0
  4 17  1  0  0  0  0
  3  6  1  0  0  0  0
  5 17  1  0  0  0  0
  5  6  2  0  0  0  0
  6  7  1  0  0  0  0
  7 14  1  0  0  0  0
 12 13  1  0  0  0  0
 13 16  1  0  0  0  0
  9 10  1  0  0  0  0
 14 16  1  0  0  0  0
 14 21  2  0  0  0  0
 10 12  1  0  0  0  0
 15 16  1  0  0  0  0
 10 15  1  0  0  0  0
 10 11  1  0  0  0  0
 11 20  2  0  0  0  0
 11 19  1  0  0  0  0
  1 23  1  0  0  0  0
  5 24  1  0  0  0  0
  7 25  1  0  0  0  0
  7 26  1  0  0  0  0
  8 27  1  0  0  0  0
  9 28  1  0  0  0  0
  9 29  1  0  0  0  0
  9 30  1  0  0  0  0
 12 31  1  0  0  0  0
 12 32  1  0  0  0  0
 13 33  1  0  0  0  0
 13 34  1  0  0  0  0
 15 35  1  0  0  0  0
 15 36  1  0  0  0  0
 17 37  1  0  0  0  0
 19 38  1  0  0  0  0
M  END
> <OPENEYE_ISO_SMILES>
C[C@]1(CCN(C1)C(=O)Cc2c[nH]c3c2c(ccn3)Cl)C(=O)O

> <OPENEYE_INCHI>
InChI=1S/C15H16ClN3O3/c1-15(14(21)22)3-5-19(8-15)11(20)6-9-7-18-13-12(9)10(16)2-4-17-13/h2,4,7H,3,5-6,8H2,1H3,(H,17,18)(H,21,22)/t15-/m1/s1

> <OPENEYE_INCHIKEY>
TVSPUBDQAPCPQX-OAHLLOKOSA-N

> <FORMULA>
C15H16ClN3O3

$$$$
