@<TRIPOS>MOLECULE
/home/pku/3cl/gett_pdb/7LG7/7LG7_mol2/ligand/7LG7_XYJ.pdb
 30 32 0 0 0
SMALL
GASTEIGER

@<TRIPOS>ATOM
      1  C10       35.3980  -38.2920    8.0920 C.2   201  XYJ201      0.2631
      2  C13       37.3680  -39.7270    5.9350 C.3   201  XYJ201      0.1917
      3  C17       40.7190  -38.5520    3.6480 C.3   201  XYJ201      0.1595
      4  C20       39.1330  -40.7130    2.7840 C.3   201  XYJ201      0.1047
      5  C26       33.4510  -32.0410   11.8710 C.3   201  XYJ201      0.1186
      6  C02       34.0490  -31.7030    7.7890 C.2   201  XYJ201      0.2732
      7  C03       33.6310  -32.8590    8.3020 C.2   201  XYJ201      0.1562
      8  C04       33.4350  -32.9710    9.6170 C.3   201  XYJ201      0.2290
      9  C06       32.9920  -34.8560    8.7140 C.2   201  XYJ201      0.1874
     10  C08       33.5620  -37.4400    9.6840 C.3   201  XYJ201      0.0748
     11  C09       35.0650  -37.5110    9.3730 C.3   201  XYJ201      0.1006
     12  C14       37.8210  -40.6530    4.8070 C.3   201  XYJ201      0.0999
     13  C16       39.8480  -39.3570    4.6010 C.3   201  XYJ201      0.1047
     14  C19       40.0090  -39.8960    1.8470 C.3   201  XYJ201      0.1595
     15  C27       34.0820  -30.7590    9.9070 C.2   201  XYJ201      0.3149
     16  C29       34.7370  -29.3670    8.0170 C.3   201  XYJ201      0.1248
     17  N05       33.0180  -34.2100    9.8750 N.2   201  XYJ201     -0.2224
     18  N11       35.8460  -39.5430    8.3410 N.am  201  XYJ201     -0.0631
     19  N15       38.6700  -39.8770    3.8950 N.3   201  XYJ201     -0.2669
     20  N24       33.3420  -34.0300    7.7350 N.2   201  XYJ201     -0.2175
     21  N25       33.6640  -31.9220   10.4170 N.am  201  XYJ201     -0.2389
     22  N28       34.2750  -30.6510    8.5880 N.am  201  XYJ201     -0.2077
     23  O01       34.2320  -31.5860    6.5780 O.2   201  XYJ201     -0.2680
     24  O18       41.1530  -39.3910    2.5620 O.3   201  XYJ201     -0.3508
     25  O21       37.0440  -41.7660    7.7220 O.2   201  XYJ201     -0.1527
     26  O22       35.0410  -41.1240    6.3880 O.2   201  XYJ201     -0.1527
     27  O23       35.2680  -37.7840    6.9790 O.2   201  XYJ201     -0.2716
     28  O30       34.2870  -29.7980   10.6460 O.2   201  XYJ201     -0.2519
     29  S07       32.4670  -36.5620    8.5030 S.3   201  XYJ201     -0.0755
     30  S12       36.2740  -40.5920    7.1150 S.O2  201  XYJ201      0.0771
@<TRIPOS>BOND
     1    14    24    1
     2    14     4    1
     3    24     3    1
     4     4    19    1
     5     3    13    1
     6    19    13    1
     7    19    12    1
     8    12     2    1
     9     2    30    1
    10    26    30    2
    11    23     6    2
    12    27     1    2
    13    30    25    2
    14    30    18    1
    15    20     7    2
    16    20     9    1
    17     6     7    1
    18     6    22   am
    19    16    22    1
    20     1    18   am
    21     1    11    1
    22     7     8    1
    23    29     9    1
    24    29    10    1
    25    22    15   am
    26     9    17    2
    27    11    10    1
    28     8    17    1
    29     8    21    1
    30    15    21   am
    31    15    28    2
    32    21     5    1
