4FL
  -OEChem-02242320003D

 18 19  0     0  0  0  0  0  0999 V2000
    1.1790    1.2080   -0.0000 C   0  0  0  0  0  0  0  0  0  0  0  0
    1.1630   -1.1930    0.0000 C   0  0  0  0  0  0  0  0  0  0  0  0
    2.5580    1.1530   -0.0000 C   0  0  0  0  0  0  0  0  0  0  0  0
    2.5420   -1.1560    0.0000 C   0  0  0  0  0  0  0  0  0  0  0  0
   -3.1250   -0.6270   -0.0000 C   0  0  0  0  0  0  0  0  0  0  0  0
   -3.0730    0.7210    0.0000 C   0  0  0  0  0  0  0  0  0  0  0  0
    0.4520    0.0130   -0.0000 C   0  0  0  0  0  0  0  0  0  0  0  0
   -1.0270    0.0230   -0.0000 C   0  0  0  0  0  0  0  0  0  0  0  0
    3.1890   -0.0060    0.0000 N   0  0  0  0  0  0  0  0  0  0  0  0
   -1.8340   -1.0770   -0.0010 N   0  0  0  0  0  0  0  0  0  0  0  0
   -1.7890    1.0940    0.0000 N   0  0  0  0  0  0  0  0  0  0  0  0
    0.6700    2.1600    0.0040 H   0  0  0  0  0  0  0  0  0  0  0  0
    0.6400   -2.1380    0.0010 H   0  0  0  0  0  0  0  0  0  0  0  0
    3.1280    2.0700   -0.0000 H   0  0  0  0  0  0  0  0  0  0  0  0
    3.0990   -2.0810    0.0010 H   0  0  0  0  0  0  0  0  0  0  0  0
   -4.0170   -1.2360    0.0040 H   0  0  0  0  0  0  0  0  0  0  0  0
   -3.9240    1.3860    0.0000 H   0  0  0  0  0  0  0  0  0  0  0  0
   -1.5450   -2.0040   -0.0000 H   0  0  0  0  0  0  0  0  0  0  0  0
  5 10  1  0  0  0  0
  5  6  2  0  0  0  0
  8 10  1  0  0  0  0
  6 11  1  0  0  0  0
  8 11  2  0  0  0  0
  7  8  1  0  0  0  0
  1  7  2  0  0  0  0
  1  3  1  0  0  0  0
  2  7  1  0  0  0  0
  3  9  2  0  0  0  0
  2  4  2  0  0  0  0
  4  9  1  0  0  0  0
  1 12  1  0  0  0  0
  2 13  1  0  0  0  0
  3 14  1  0  0  0  0
  4 15  1  0  0  0  0
  5 16  1  0  0  0  0
  6 17  1  0  0  0  0
 10 18  1  0  0  0  0
M  END
> <OPENEYE_ISO_SMILES>
c1cnccc1c2[nH]ccn2

> <OPENEYE_INCHI>
InChI=1S/C8H7N3/c1-3-9-4-2-7(1)8-10-5-6-11-8/h1-6H,(H,10,11)

> <OPENEYE_INCHIKEY>
QWZSAEUNIBEKIZ-UHFFFAOYSA-N

> <FORMULA>
C8H7N3

$$$$
