W51
  -OEChem-02242320043D

 31 33  0     1  0  0  0  0  0999 V2000
   -2.5080    0.6150    1.5410 C   0  0  0  0  0  0  0  0  0  0  0  0
   -3.1320    0.0450   -1.2620 C   0  0  0  0  0  0  0  0  0  0  0  0
    1.5760   -0.3590   -0.1300 C   0  0  0  0  0  0  0  0  0  0  0  0
    2.7670    0.3140    0.1300 C   0  0  0  0  0  0  0  0  0  0  0  0
    1.6590    2.3240   -0.0800 C   0  0  0  0  0  0  0  0  0  0  0  0
    0.4300    0.3950   -0.3630 C   0  0  0  0  0  0  0  0  0  0  0  0
   -1.1380   -1.1630    0.4510 C   0  0  0  0  0  0  0  0  0  0  0  0
   -2.5250   -0.8180    0.9990 C   0  0  0  0  0  0  0  0  0  0  0  0
   -2.0810    1.5670    0.4190 C   0  0  0  0  0  0  0  0  0  0  0  0
   -1.8400    0.7610   -0.8590 C   0  0  0  0  0  0  0  0  0  0  0  0
   -3.5490   -0.9120   -0.1370 C   0  0  0  0  0  0  0  0  0  0  0  0
    3.9370   -0.3910    0.3680 N   0  0  0  0  0  0  0  0  0  0  0  0
    2.7660    1.6460    0.1450 N   0  0  0  0  0  0  0  0  0  0  0  0
    0.5130    1.7240   -0.3300 N   0  0  0  0  0  0  0  0  0  0  0  0
   -0.7810   -0.2280   -0.6270 N   0  0  1  0  0  0  0  0  0  0  0  0
    1.5240   -2.0940   -0.1680 Cl  0  0  0  0  0  0  0  0  0  0  0  0
   -3.5050    0.8850    1.8890 H   0  0  0  0  0  0  0  0  0  0  0  0
   -1.8010    0.6840    2.3670 H   0  0  0  0  0  0  0  0  0  0  0  0
   -3.9190    0.7810   -1.4270 H   0  0  0  0  0  0  0  0  0  0  0  0
   -2.9640   -0.5200   -2.1790 H   0  0  0  0  0  0  0  0  0  0  0  0
    1.6920    3.4030   -0.0600 H   0  0  0  0  0  0  0  0  0  0  0  0
   -0.4030   -1.0910    1.2520 H   0  0  0  0  0  0  0  0  0  0  0  0
   -1.1480   -2.1800    0.0590 H   0  0  0  0  0  0  0  0  0  0  0  0
   -2.7860   -1.5100    1.8000 H   0  0  0  0  0  0  0  0  0  0  0  0
   -2.8680    2.3010    0.2450 H   0  0  0  0  0  0  0  0  0  0  0  0
   -1.1610    2.0780    0.7060 H   0  0  0  0  0  0  0  0  0  0  0  0
   -1.5340    1.4350   -1.6600 H   0  0  0  0  0  0  0  0  0  0  0  0
   -4.5340   -0.6300    0.2360 H   0  0  0  0  0  0  0  0  0  0  0  0
   -3.5810   -1.9330   -0.5190 H   0  0  0  0  0  0  0  0  0  0  0  0
    3.9300   -1.3610    0.3550 H   0  0  0  0  0  0  0  0  0  0  0  0
    4.7620    0.0850    0.5480 H   0  0  0  0  0  0  0  0  0  0  0  0
  2 11  1  0  0  0  0
  8 11  1  0  0  0  0
  2 10  1  0  0  0  0
  1  8  1  0  0  0  0
  7  8  1  0  0  0  0
  1  9  1  0  0  0  0
  9 10  1  0  0  0  0
 10 15  1  0  0  0  0
  7 15  1  0  0  0  0
  6 15  1  0  0  0  0
  3 16  1  0  0  0  0
  3  6  2  0  0  0  0
  6 14  1  0  0  0  0
  3  4  1  0  0  0  0
  5 14  2  0  0  0  0
  4 12  1  0  0  0  0
  4 13  2  0  0  0  0
  5 13  1  0  0  0  0
  1 17  1  0  0  0  0
  1 18  1  0  0  0  0
  2 19  1  0  0  0  0
  2 20  1  0  0  0  0
  5 21  1  0  0  0  0
  7 22  1  0  0  0  0
  7 23  1  0  0  0  0
  8 24  1  0  0  0  0
  9 25  1  0  0  0  0
  9 26  1  0  0  0  0
 10 27  1  0  0  0  0
 11 28  1  0  0  0  0
 11 29  1  0  0  0  0
 12 30  1  0  0  0  0
 12 31  1  0  0  0  0
M  END
> <OPENEYE_ISO_SMILES>
c1nc(c(c(n1)[N@]2CC3CCC2CC3)Cl)N

> <OPENEYE_INCHI>
InChI=1S/C11H15ClN4/c12-9-10(13)14-6-15-11(9)16-5-7-1-3-8(16)4-2-7/h6-8H,1-5H2,(H2,13,14,15)/t7-,8+

> <OPENEYE_INCHIKEY>
KOPSTLNXEGIBTP-OCAPTIKFSA-N

> <FORMULA>
C11H15ClN4

$$$$
