@<TRIPOS>MOLECULE
/home/pku/3cl/gett_pdb/5S4K/5S4K_mol2/ligand/5S4K_W44.pdb
 18 21 0 0 0
SMALL
GASTEIGER

@<TRIPOS>ATOM
      1  N1         4.9780   55.1600   -6.5320 N.3   601  W44601     -0.2164
      2  C4         6.0360   54.1960   -6.1860 C.3   601  W44601      0.0777
      3  C5         5.9340   53.7080   -4.7390 C.3   601  W44601      0.0449
      4  C6         6.4320   54.7630   -3.7960 C.ar  601  W44601     -0.0077
      5  C7         6.2500   54.9160   -2.3780 C.ar  601  W44601      0.0129
      6  C8         5.4910   54.2470   -1.4210 C.ar  601  W44601      0.0012
      7  C10        6.2490   55.7990    0.2600 C.ar  601  W44601      0.0015
      8  C13        5.4200   56.4900   -6.9880 C.3   601  W44601      0.1218
      9  O          7.1150   58.1270   -6.8680 O.3   601  W44601     -0.2212
     10  C14        6.4890   57.1060   -6.0940 C.3   601  W44601      0.1747
     11  C2         7.5550   56.0940   -5.6440 C.3   601  W44601      0.0712
     12  C3         7.4320   54.7820   -6.4370 C.3   601  W44601      0.0262
     13  C1         7.2660   55.7610   -4.2060 C.ar  601  W44601      0.0354
     14  C12        7.0230   56.0150   -1.9830 C.ar  601  W44601      0.0594
     15  N          7.6890   56.5040   -3.1090 N.ar  601  W44601     -0.3289
     16  C          8.7640   57.4910   -3.0710 C.3   601  W44601      0.1301
     17  C11        7.0260   56.4690   -0.6730 C.ar  601  W44601      0.0172
     18  C9         5.4950   54.6960   -0.1090 C.ar  601  W44601      0.0001
@<TRIPOS>BOND
     1     8     1    1
     2     8    10    1
     3     9    10    1
     4     1     2    1
     5    12     2    1
     6    12    11    1
     7     2     3    1
     8    10    11    1
     9    11    13    1
    10     3     4    1
    11    13     4   ar
    12    13    15   ar
    13     4     5   ar
    14    15    16    1
    15    15    14   ar
    16     5    14   ar
    17     5     6   ar
    18    14    17   ar
    19     6    18   ar
    20    17     7   ar
    21    18     7   ar
