LKU
  -OEChem-02242320033D

 30 31  0     0  0  0  0  0  0999 V2000
   -0.0530   -0.6340   -0.0700 N   0  0  0  0  0  0  0  0  0  0  0  0
   -2.1870   -1.6680   -0.5270 C   0  0  0  0  0  0  0  0  0  0  0  0
   -1.4510   -0.5850   -0.0640 C   0  0  0  0  0  0  0  0  0  0  0  0
    0.6600    0.4890   -0.2850 C   0  0  0  0  0  0  0  0  0  0  0  0
    2.1340    0.4620   -0.1740 C   0  0  0  0  0  0  0  0  0  0  0  0
    2.8750    1.6230   -0.3960 C   0  0  0  0  0  0  0  0  0  0  0  0
    4.8960    0.4140    0.0350 C   0  0  0  0  0  0  0  0  0  0  0  0
   -2.1040    0.5460    0.4060 C   0  0  0  0  0  0  0  0  0  0  0  0
   -5.7250   -0.4380   -0.0630 C   0  0  0  0  0  0  0  0  0  0  0  0
   -4.2190   -0.4890   -0.0630 C   0  0  0  0  0  0  0  0  0  0  0  0
   -3.5680   -1.6170   -0.5250 C   0  0  0  0  0  0  0  0  0  0  0  0
    0.0910    1.5250   -0.5710 O   0  0  0  0  0  0  0  0  0  0  0  0
    4.2500    1.5930   -0.2900 C   0  0  0  0  0  0  0  0  0  0  0  0
    4.1670   -0.7430    0.2620 C   0  0  0  0  0  0  0  0  0  0  0  0
    4.8040   -1.8890    0.5850 F   0  0  0  0  0  0  0  0  0  0  0  0
    2.7890   -0.7250    0.1600 C   0  0  0  0  0  0  0  0  0  0  0  0
   -3.4890    0.5910    0.4110 C   0  0  0  0  0  0  0  0  0  0  0  0
   -4.1310    1.6970    0.8710 O   0  0  0  0  0  0  0  0  0  0  0  0
    0.4030   -1.4760    0.0840 H   0  0  0  0  0  0  0  0  0  0  0  0
   -1.6800   -2.5490   -0.8920 H   0  0  0  0  0  0  0  0  0  0  0  0
    2.3720    2.5450   -0.6500 H   0  0  0  0  0  0  0  0  0  0  0  0
    5.9730    0.3960    0.1170 H   0  0  0  0  0  0  0  0  0  0  0  0
   -1.5340    1.3900    0.7670 H   0  0  0  0  0  0  0  0  0  0  0  0
   -6.1020   -0.8220    0.8850 H   0  0  0  0  0  0  0  0  0  0  0  0
   -6.0540    0.5930   -0.1940 H   0  0  0  0  0  0  0  0  0  0  0  0
   -6.1100   -1.0480   -0.8800 H   0  0  0  0  0  0  0  0  0  0  0  0
   -4.1380   -2.4560   -0.8940 H   0  0  0  0  0  0  0  0  0  0  0  0
    4.8240    2.4910   -0.4620 H   0  0  0  0  0  0  0  0  0  0  0  0
    2.2210   -1.6260    0.3370 H   0  0  0  0  0  0  0  0  0  0  0  0
   -4.3090    2.3600    0.1900 H   0  0  0  0  0  0  0  0  0  0  0  0
  9 10  1  0  0  0  0
 10 11  2  0  0  0  0
  2 11  1  0  0  0  0
  2  3  2  0  0  0  0
  1  3  1  0  0  0  0
  1  4  1  0  0  0  0
  4 12  2  0  0  0  0
  4  5  1  0  0  0  0
  5  6  2  0  0  0  0
  6 13  1  0  0  0  0
  7 13  2  0  0  0  0
  7 14  1  0  0  0  0
 14 15  1  0  0  0  0
 14 16  2  0  0  0  0
  3  8  1  0  0  0  0
  8 17  2  0  0  0  0
 17 18  1  0  0  0  0
 10 17  1  0  0  0  0
  5 16  1  0  0  0  0
  1 19  1  0  0  0  0
  2 20  1  0  0  0  0
  6 21  1  0  0  0  0
  7 22  1  0  0  0  0
  8 23  1  0  0  0  0
  9 24  1  0  0  0  0
  9 25  1  0  0  0  0
  9 26  1  0  0  0  0
 11 27  1  0  0  0  0
 13 28  1  0  0  0  0
 16 29  1  0  0  0  0
 18 30  1  0  0  0  0
M  END
> <OPENEYE_ISO_SMILES>
Cc1ccc(cc1O)NC(=O)c2cccc(c2)F

> <OPENEYE_INCHI>
InChI=1S/C14H12FNO2/c1-9-5-6-12(8-13(9)17)16-14(18)10-3-2-4-11(15)7-10/h2-8,17H,1H3,(H,16,18)

> <OPENEYE_INCHIKEY>
HSWJYBWHEHPWSP-UHFFFAOYSA-N

> <FORMULA>
C14H12FNO2

$$$$
