CIT
  -OEChem-02242320023D

 21 20  0     0  0  0  0  0  0999 V2000
    0.4120   -0.0060    2.4790 C   0  0  0  0  0  0  0  0  0  0  0  0
   -0.4460    0.8360    2.3680 O   0  0  0  0  0  0  0  0  0  0  0  0
    0.8120   -0.4000    3.6980 O   0  0  0  0  0  0  0  0  0  0  0  0
    1.0320   -0.6160    1.2490 C   0  0  0  0  0  0  0  0  0  0  0  0
    0.4020    0.0020    0.0000 C   0  0  0  0  0  0  0  0  0  0  0  0
    0.6310    1.4120    0.0000 O   0  0  0  0  0  0  0  0  0  0  0  0
    1.0320   -0.6160   -1.2490 C   0  0  0  0  0  0  0  0  0  0  0  0
    0.4120   -0.0060   -2.4790 C   0  0  0  0  0  0  0  0  0  0  0  0
   -0.4460    0.8360   -2.3680 O   0  0  0  0  0  0  0  0  0  0  0  0
    0.8120   -0.4000   -3.6980 O   0  0  0  0  0  0  0  0  0  0  0  0
   -1.0800   -0.2650    0.0000 C   0  0  0  0  0  0  0  0  0  0  0  0
   -1.8600    0.6560    0.0000 O   0  0  0  0  0  0  0  0  0  0  0  0
   -1.5330   -1.5290    0.0000 O   0  0  0  0  0  0  0  0  0  0  0  0
    0.4140   -0.0090    4.4880 H   0  0  0  0  0  0  0  0  0  0  0  0
    2.1050   -0.4220    1.2490 H   0  0  0  0  0  0  0  0  0  0  0  0
    0.8580   -1.6920    1.2490 H   0  0  0  0  0  0  0  0  0  0  0  0
    1.5900    1.5400    0.0000 H   0  0  0  0  0  0  0  0  0  0  0  0
    2.1050   -0.4220   -1.2490 H   0  0  0  0  0  0  0  0  0  0  0  0
    0.8580   -1.6920   -1.2490 H   0  0  0  0  0  0  0  0  0  0  0  0
    0.4140   -0.0090   -4.4880 H   0  0  0  0  0  0  0  0  0  0  0  0
   -2.4850   -1.7010    0.0000 H   0  0  0  0  0  0  0  0  0  0  0  0
  1  2  2  0  0  0  0
  1  3  1  0  0  0  0
  1  4  1  0  0  0  0
  3 14  1  0  0  0  0
  4  5  1  0  0  0  0
  4 15  1  0  0  0  0
  4 16  1  0  0  0  0
  5  6  1  0  0  0  0
  5  7  1  0  0  0  0
  5 11  1  0  0  0  0
  6 17  1  0  0  0  0
  7  8  1  0  0  0  0
  7 18  1  0  0  0  0
  7 19  1  0  0  0  0
  8  9  2  0  0  0  0
  8 10  1  0  0  0  0
 10 20  1  0  0  0  0
 11 12  2  0  0  0  0
 11 13  1  0  0  0  0
 13 21  1  0  0  0  0
M  END
> <OPENEYE_ISO_SMILES>
C(C(=O)O)C(CC(=O)O)(C(=O)O)O

> <OPENEYE_INCHI>
InChI=1S/C6H8O7/c7-3(8)1-6(13,5(11)12)2-4(9)10/h13H,1-2H2,(H,7,8)(H,9,10)(H,11,12)

> <OPENEYE_INCHIKEY>
KRKNYBCHXYNGOX-UHFFFAOYSA-N

> <FORMULA>
C6H8O7

$$$$
