WOY
  -OEChem-02242320043D

 16 17  0     0  0  0  0  0  0999 V2000
    0.9590   -1.3290   -0.0000 N   0  0  0  0  0  0  0  0  0  0  0  0
   -0.2050   -0.6710   -0.0000 C   0  0  0  0  0  0  0  0  0  0  0  0
   -2.4550   -0.0390    0.0000 C   0  0  0  0  0  0  0  0  0  0  0  0
   -1.5900    1.2340    0.0000 C   0  0  0  0  0  0  0  0  0  0  0  0
   -1.5000   -1.1520   -0.0000 N   0  0  0  0  0  0  0  0  0  0  0  0
   -0.1710    0.7200   -0.0000 C   0  0  0  0  0  0  0  0  0  0  0  0
    2.1020   -0.6780    0.0000 C   0  0  0  0  0  0  0  0  0  0  0  0
    2.1590    0.6390    0.0000 N   0  0  0  0  0  0  0  0  0  0  0  0
    1.0480    1.3640   -0.0010 C   0  0  0  0  0  0  0  0  0  0  0  0
   -3.0760   -0.0740    0.8950 H   0  0  0  0  0  0  0  0  0  0  0  0
   -3.0780   -0.0750   -0.8940 H   0  0  0  0  0  0  0  0  0  0  0  0
   -1.7810    1.8250   -0.8950 H   0  0  0  0  0  0  0  0  0  0  0  0
   -1.7810    1.8240    0.8960 H   0  0  0  0  0  0  0  0  0  0  0  0
   -1.7440   -2.0910   -0.0000 H   0  0  0  0  0  0  0  0  0  0  0  0
    3.0240   -1.2400    0.0010 H   0  0  0  0  0  0  0  0  0  0  0  0
    1.0970    2.4430   -0.0000 H   0  0  0  0  0  0  0  0  0  0  0  0
  8  9  2  0  0  0  0
  6  9  1  0  0  0  0
  4  6  1  0  0  0  0
  3  4  1  0  0  0  0
  7  8  1  0  0  0  0
  2  6  2  0  0  0  0
  3  5  1  0  0  0  0
  1  7  2  0  0  0  0
  2  5  1  0  0  0  0
  1  2  1  0  0  0  0
  3 10  1  0  0  0  0
  3 11  1  0  0  0  0
  4 12  1  0  0  0  0
  4 13  1  0  0  0  0
  5 14  1  0  0  0  0
  7 15  1  0  0  0  0
  9 16  1  0  0  0  0
M  END
> <OPENEYE_ISO_SMILES>
c1c2c(ncn1)NCC2

> <OPENEYE_INCHI>
InChI=1S/C6H7N3/c1-2-8-6-5(1)3-7-4-9-6/h3-4H,1-2H2,(H,7,8,9)

> <OPENEYE_INCHIKEY>
PANGDCFLXUDHDI-UHFFFAOYSA-N

> <FORMULA>
C6H7N3

$$$$
