RP0
  -OEChem-02242320043D

 32 33  0     0  0  0  0  0  0999 V2000
    2.3380   -0.0910    1.1570 C   0  0  0  0  0  0  0  0  0  0  0  0
    2.9870   -0.9930    2.0600 C   0  0  0  0  0  0  0  0  0  0  0  0
    2.8590    0.1150   -0.1230 C   0  0  0  0  0  0  0  0  0  0  0  0
    2.2270    0.9810   -0.9940 C   0  0  0  0  0  0  0  0  0  0  0  0
    1.0800    1.6460   -0.6040 C   0  0  0  0  0  0  0  0  0  0  0  0
    0.5540    1.4480    0.6680 C   0  0  0  0  0  0  0  0  0  0  0  0
   -4.9230   -2.1550    0.0530 C   0  0  0  0  0  0  0  0  0  0  0  0
    1.1790    0.5800    1.5490 C   0  0  0  0  0  0  0  0  0  0  0  0
   -0.4560   -0.3910   -1.3630 C   0  0  0  0  0  0  0  0  0  0  0  0
   -1.8430   -0.4600   -0.7770 C   0  0  0  0  0  0  0  0  0  0  0  0
   -3.8000   -1.2380   -0.1620 C   0  0  0  0  0  0  0  0  0  0  0  0
   -3.7530    0.0750    0.2120 C   0  0  0  0  0  0  0  0  0  0  0  0
   -2.5010    0.5650   -0.1910 C   0  0  0  0  0  0  0  0  0  0  0  0
   -0.6060    2.1230    1.0570 N   0  0  0  0  0  0  0  0  0  0  0  0
    3.5020   -1.7090    2.7760 N   0  0  0  0  0  0  0  0  0  0  0  0
   -4.8370   -3.4350   -0.3630 N   0  0  0  0  0  0  0  0  0  0  0  0
   -2.6290   -1.5440   -0.7580 O   0  0  0  0  0  0  0  0  0  0  0  0
   -1.3850    2.6160   -1.2330 O   0  0  0  0  0  0  0  0  0  0  0  0
   -2.9180    2.9180    0.7180 O   0  0  0  0  0  0  0  0  0  0  0  0
   -5.9330   -1.7620    0.6060 O   0  0  0  0  0  0  0  0  0  0  0  0
   -1.9000    2.2070    0.0270 S   0  0  0  0  0  0  0  0  0  0  0  0
    4.4290   -0.7910   -0.6630 Br  0  0  0  0  0  0  0  0  0  0  0  0
    2.6310    1.1400   -1.9830 H   0  0  0  0  0  0  0  0  0  0  0  0
    0.5910    2.3220   -1.2890 H   0  0  0  0  0  0  0  0  0  0  0  0
    0.7690    0.4220    2.5360 H   0  0  0  0  0  0  0  0  0  0  0  0
    0.2750   -0.6410   -0.5940 H   0  0  0  0  0  0  0  0  0  0  0  0
   -0.3740   -1.1010   -2.1860 H   0  0  0  0  0  0  0  0  0  0  0  0
   -0.2660    0.6170   -1.7310 H   0  0  0  0  0  0  0  0  0  0  0  0
   -4.5300    0.6290    0.7170 H   0  0  0  0  0  0  0  0  0  0  0  0
   -0.6530    2.5420    1.9300 H   0  0  0  0  0  0  0  0  0  0  0  0
   -4.0320   -3.7490   -0.8030 H   0  0  0  0  0  0  0  0  0  0  0  0
   -5.5810   -4.0420   -0.2210 H   0  0  0  0  0  0  0  0  0  0  0  0
  7 16  1  0  0  0  0
  7 20  2  0  0  0  0
  7 11  1  0  0  0  0
 11 17  1  0  0  0  0
 11 12  2  0  0  0  0
  3 22  1  0  0  0  0
  2 15  3  0  0  0  0
 10 17  1  0  0  0  0
  1  2  1  0  0  0  0
 12 13  1  0  0  0  0
  1  3  2  0  0  0  0
  3  4  1  0  0  0  0
  1  8  1  0  0  0  0
 10 13  2  0  0  0  0
  9 10  1  0  0  0  0
  4  5  2  0  0  0  0
 13 21  1  0  0  0  0
  6  8  2  0  0  0  0
  5  6  1  0  0  0  0
  6 14  1  0  0  0  0
 14 21  1  0  0  0  0
 19 21  2  0  0  0  0
 18 21  2  0  0  0  0
  4 23  1  0  0  0  0
  5 24  1  0  0  0  0
  8 25  1  0  0  0  0
  9 26  1  0  0  0  0
  9 27  1  0  0  0  0
  9 28  1  0  0  0  0
 12 29  1  0  0  0  0
 14 30  1  0  0  0  0
 16 31  1  0  0  0  0
 16 32  1  0  0  0  0
M  END
> <OPENEYE_ISO_SMILES>
Cc1c(cc(o1)C(=O)N)S(=O)(=O)Nc2ccc(c(c2)C#N)Br

> <OPENEYE_INCHI>
InChI=1S/C13H10BrN3O4S/c1-7-12(5-11(21-7)13(16)18)22(19,20)17-9-2-3-10(14)8(4-9)6-15/h2-5,17H,1H3,(H2,16,18)

> <OPENEYE_INCHIKEY>
KCUXIGLONPMWPT-UHFFFAOYSA-N

> <FORMULA>
C13H10BrN3O4S

$$$$
