WQO
  -OEChem-02242320043D

 38 40  0     1  0  0  0  0  0999 V2000
   -2.3620    3.3950   -0.0070 C   0  0  0  0  0  0  0  0  0  0  0  0
   -2.1120    1.0100    0.0310 C   0  0  0  0  0  0  0  0  0  0  0  0
   -1.5890    2.2760    0.2370 C   0  0  0  0  0  0  0  0  0  0  0  0
   -3.4110    0.8670   -0.4190 C   0  0  0  0  0  0  0  0  0  0  0  0
   -3.7430   -0.6030   -0.5640 C   0  0  0  0  0  0  0  0  0  0  0  0
   -2.4740   -2.6590    0.1210 C   0  0  0  0  0  0  0  0  0  0  0  0
   -2.3790   -1.3260   -0.5760 C   0  0  2  0  0  0  0  0  0  0  0  0
   -4.1870    1.9890   -0.6520 C   0  0  0  0  0  0  0  0  0  0  0  0
   -3.6620    3.2510   -0.4510 C   0  0  0  0  0  0  0  0  0  0  0  0
    4.8810   -0.0230   -0.8280 C   0  0  0  0  0  0  0  0  0  0  0  0
    4.6070    0.2890    0.4980 C   0  0  0  0  0  0  0  0  0  0  0  0
    3.3000    0.2810    0.9520 C   0  0  0  0  0  0  0  0  0  0  0  0
    2.2590   -0.0420    0.0660 C   0  0  0  0  0  0  0  0  0  0  0  0
    0.8650   -0.0520    0.5370 C   0  0  0  0  0  0  0  0  0  0  0  0
   -1.4820   -0.3530    0.2190 C   0  0  1  0  0  0  0  0  0  0  0  0
    2.5520   -0.3530   -1.2660 C   0  0  0  0  0  0  0  0  0  0  0  0
    3.8440   -0.3430   -1.7030 C   0  0  0  0  0  0  0  0  0  0  0  0
    6.1940   -0.0100   -1.2850 N   0  0  0  0  0  0  0  0  0  0  0  0
    3.0250    0.5850    2.2450 O   0  0  0  0  0  0  0  0  0  0  0  0
   -0.1320   -0.3630   -0.3150 O   0  0  0  0  0  0  0  0  0  0  0  0
   -3.2980   -3.6060   -0.3520 O   0  0  0  0  0  0  0  0  0  0  0  0
   -1.8080   -2.8740    1.1060 O   0  0  0  0  0  0  0  0  0  0  0  0
    0.6130    0.2190    1.6950 O   0  0  0  0  0  0  0  0  0  0  0  0
   -1.9510    4.3810    0.1550 H   0  0  0  0  0  0  0  0  0  0  0  0
   -0.5740    2.3890    0.5890 H   0  0  0  0  0  0  0  0  0  0  0  0
   -4.3430   -0.9400    0.2810 H   0  0  0  0  0  0  0  0  0  0  0  0
   -4.2730   -0.7800   -1.5000 H   0  0  0  0  0  0  0  0  0  0  0  0
   -2.0140   -1.4480   -1.5960 H   0  0  0  0  0  0  0  0  0  0  0  0
   -5.2020    1.8780   -1.0030 H   0  0  0  0  0  0  0  0  0  0  0  0
   -4.2680    4.1250   -0.6420 H   0  0  0  0  0  0  0  0  0  0  0  0
    5.4120    0.5360    1.1730 H   0  0  0  0  0  0  0  0  0  0  0  0
   -1.4740   -0.6240    1.2750 H   0  0  0  0  0  0  0  0  0  0  0  0
    1.7540   -0.6020   -1.9500 H   0  0  0  0  0  0  0  0  0  0  0  0
    4.0650   -0.5810   -2.7330 H   0  0  0  0  0  0  0  0  0  0  0  0
    6.3870   -0.2240   -2.2110 H   0  0  0  0  0  0  0  0  0  0  0  0
    6.9170    0.2120   -0.6770 H   0  0  0  0  0  0  0  0  0  0  0  0
    2.8650    1.5250    2.4030 H   0  0  0  0  0  0  0  0  0  0  0  0
   -3.3240   -4.4450    0.1280 H   0  0  0  0  0  0  0  0  0  0  0  0
  1  9  2  0  0  0  0
  8  9  1  0  0  0  0
  1  3  1  0  0  0  0
  4  8  2  0  0  0  0
  2  3  2  0  0  0  0
  2  4  1  0  0  0  0
  4  5  1  0  0  0  0
  2 15  1  0  0  0  0
  5  7  1  0  0  0  0
 14 23  2  0  0  0  0
  7 15  1  0  0  0  0
 15 20  1  0  0  0  0
  6 22  2  0  0  0  0
  6  7  1  0  0  0  0
  6 21  1  0  0  0  0
 14 20  1  0  0  0  0
 13 14  1  0  0  0  0
 12 19  1  0  0  0  0
 12 13  2  0  0  0  0
 13 16  1  0  0  0  0
 11 12  1  0  0  0  0
 16 17  2  0  0  0  0
 10 11  2  0  0  0  0
 10 17  1  0  0  0  0
 10 18  1  0  0  0  0
  1 24  1  0  0  0  0
  3 25  1  0  0  0  0
  5 26  1  0  0  0  0
  5 27  1  0  0  0  0
  7 28  1  0  0  0  0
  8 29  1  0  0  0  0
  9 30  1  0  0  0  0
 11 31  1  0  0  0  0
 15 32  1  0  0  0  0
 16 33  1  0  0  0  0
 17 34  1  0  0  0  0
 18 35  1  0  0  0  0
 18 36  1  0  0  0  0
 19 37  1  0  0  0  0
 21 38  1  0  0  0  0
M  END
> <OPENEYE_ISO_SMILES>
c1ccc2c(c1)C[C@@H]([C@H]2OC(=O)c3ccc(cc3O)N)C(=O)O

> <OPENEYE_INCHI>
InChI=1S/C17H15NO5/c18-10-5-6-12(14(19)8-10)17(22)23-15-11-4-2-1-3-9(11)7-13(15)16(20)21/h1-6,8,13,15,19H,7,18H2,(H,20,21)/t13-,15-/m0/s1

> <OPENEYE_INCHIKEY>
DWGIEIVAFVJIQU-ZFWWWQNUSA-N

> <FORMULA>
C17H15NO5

$$$$
