@<TRIPOS>MOLECULE
/home/pku/3cl/gett_pdb/7EFP/7EFP_mol2/ligand/7EFP_NAG.pdb
 28 28 0 0 0
SMALL
GASTEIGER

@<TRIPOS>ATOM
      1  C1       -58.0710  -17.6770  -39.0150 C.3   1001  NAG1001     0.1078
      2  C2       -58.3040  -19.0500  -39.6530 C.3   1001  NAG1001     0.0801
      3  C3       -59.6890  -19.5510  -39.2440 C.3   1001  NAG1001     0.1043
      4  C4       -59.7960  -19.5850  -37.7210 C.3   1001  NAG1001     0.1110
      5  C5       -59.5220  -18.1880  -37.1580 C.3   1001  NAG1001     0.1104
      6  C6       -59.5580  -18.2040  -35.6340 C.3   1001  NAG1001     0.0729
      7  C7       -57.1840  -19.4940  -41.8610 C.2   1001  NAG1001     0.2103
      8  C8       -57.1330  -19.3460  -43.3810 C.3   1001  NAG1001     0.0122
      9  N2       -58.1920  -18.9650  -41.1210 N.am  1001  NAG1001    -0.3075
     10  O3       -59.9510  -20.8480  -39.8010 O.3   1001  NAG1001    -0.3872
     11  O4       -61.0890  -20.0640  -37.3150 O.3   1001  NAG1001    -0.3865
     12  O5       -58.2410  -17.7120  -37.5910 O.3   1001  NAG1001    -0.3639
     13  O6       -59.1660  -16.9230  -35.1260 O.3   1001  NAG1001    -0.3924
     14  O7       -56.3000  -20.1040  -41.2710 O.2   1001  NAG1001    -0.2761
     15  H1       -58.7790  -16.9450  -39.4360 H     1001  NAG1001     0.0642
     16  H2       -57.5580  -19.7480  -39.2180 H     1001  NAG1001     0.0551
     17  H3       -60.4350  -18.8360  -39.6260 H     1001  NAG1001     0.0639
     18  H4       -59.0320  -20.2760  -37.3300 H     1001  NAG1001     0.0646
     19  H5       -60.3020  -17.4930  -37.5080 H     1001  NAG1001     0.0646
     20  H61      -58.8800  -18.9720  -35.2560 H     1001  NAG1001     0.0584
     21  H62      -60.5670  -18.4430  -35.2920 H     1001  NAG1001     0.0584
     22  H81      -57.9500  -18.7980  -43.7890 H     1001  NAG1001     0.0322
     23  H82      -57.1330  -20.3080  -43.8280 H     1001  NAG1001     0.0322
     24  H83      -56.2390  -18.8460  -43.6560 H     1001  NAG1001     0.0322
     25  HN2      -58.9340  -18.4560  -41.5890 H     1001  NAG1001     0.1491
     26  HO3      -60.8940  -21.0490  -39.7210 H     1001  NAG1001     0.2100
     27  HO4      -61.0230  -20.4640  -36.4370 H     1001  NAG1001     0.2100
     28  HO6      -59.8350  -16.6050  -34.5050 H     1001  NAG1001     0.2095
@<TRIPOS>BOND
     1    23     8    1
     2    22     8    1
     3    24     8    1
     4     8     7    1
     5     7    14    2
     6     7     9   am
     7    25     9    1
     8     9     2    1
     9    10    26    1
    10    10     3    1
    11     2     3    1
    12     2    16    1
    13     2     1    1
    14    17     3    1
    15    15     1    1
    16     3     4    1
    17     1    12    1
    18     4    18    1
    19     4    11    1
    20     4     5    1
    21    12     5    1
    22    19     5    1
    23    11    27    1
    24     5     6    1
    25     6    21    1
    26     6    20    1
    27     6    13    1
    28    13    28    1
