@<TRIPOS>MOLECULE
/home/pku/3cl/gett_pdb/5RV6/5RV6_mol2/ligand/5RV6_0HN.pdb
 17 18 0 0 0
SMALL
GASTEIGER

@<TRIPOS>ATOM
      1  OAA      -51.5570  -29.1850    4.9670 O.co2 201  0HN201     -0.5446
      2  CAI      -50.3210  -29.1070    5.2200 C.2   201  0HN201      0.0718
      3  OAB      -49.9610  -29.0780    6.4080 O.co2 201  0HN201     -0.5446
      4  CAJ      -49.2450  -29.1450    4.1350 C.ar  201  0HN201      0.0010
      5  CAE      -47.9020  -29.2820    4.4840 C.ar  201  0HN201     -0.0073
      6  CAL      -46.9230  -29.3680    3.5080 C.ar  201  0HN201      0.1668
      7  OAH      -45.5140  -29.5170    3.5730 O.3   201  0HN201     -0.4526
      8  CAF      -45.0640  -29.0470    2.3390 C.3   201  0HN201      0.2332
      9  OAG      -46.0930  -29.3840    1.4610 O.3   201  0HN201     -0.4526
     10  CAK      -47.2800  -29.2800    2.2010 C.ar  201  0HN201      0.1663
     11  CAD      -48.6210  -29.1300    1.8390 C.ar  201  0HN201     -0.0155
     12  CAC      -49.5970  -29.0630    2.8160 C.ar  201  0HN201     -0.0492
     13  H2       -47.6670  -29.3700    5.3790 H     201  0HN201      0.0662
     14  H3       -44.2740  -29.5530    2.0910 H     201  0HN201      0.1166
     15  H4       -48.8080  -29.0470    0.9380 H     201  0HN201      0.0655
     16  H5       -50.4900  -28.9310    2.6490 H     201  0HN201      0.0625
     17  H6       -44.9000  -28.1040    2.3150 H     201  0HN201      0.1166
@<TRIPOS>UNITY_ATOM_ATTR
3 1
charge -1
@<TRIPOS>BOND
     1    15    11    1
     2     9    10    1
     3     9     8    1
     4    11    10   ar
     5    11    12   ar
     6    14     8    1
     7    10     6   ar
     8    17     8    1
     9     8     7    1
    10    16    12    1
    11    12     4   ar
    12     6     7    1
    13     6     5   ar
    14     4     5   ar
    15     4     2    1
    16     5    13    1
    17     1     2   ar
    18     2     3   ar
