T8M
  -OEChem-02242320043D

 31 32  0     0  0  0  0  0  0999 V2000
    0.0000    0.7220   -0.2310 N   0  0  0  0  0  0  0  0  0  0  0  0
    1.2040    1.0300   -1.0150 C   0  0  0  0  0  0  0  0  0  0  0  0
    2.3620    0.2160   -0.4970 C   0  0  0  0  0  0  0  0  0  0  0  0
    2.7040   -0.9980   -0.9300 C   0  0  0  0  0  0  0  0  0  0  0  0
    3.8070   -1.5510   -0.3040 C   0  0  0  0  0  0  0  0  0  0  0  0
    4.3620   -0.7860    0.6370 C   0  0  0  0  0  0  0  0  0  0  0  0
   -1.5620   -1.0040    0.5290 C   0  0  0  0  0  0  0  0  0  0  0  0
   -2.6250   -0.0010    0.3600 N   0  0  0  0  0  0  0  0  0  0  0  0
   -4.2610   -1.8390    0.1040 C   0  0  0  0  0  0  0  0  0  0  0  0
   -4.7680    0.4650    0.0220 O   0  0  0  0  0  0  0  0  0  0  0  0
   -3.9040   -0.3760    0.1590 C   0  0  0  0  0  0  0  0  0  0  0  0
   -2.2550    1.4210    0.4170 C   0  0  0  0  0  0  0  0  0  0  0  0
   -1.0860    1.6590   -0.5450 C   0  0  0  0  0  0  0  0  0  0  0  0
   -0.4210   -0.6700   -0.4370 C   0  0  0  0  0  0  0  0  0  0  0  0
    3.4750    0.7270    0.7660 S   0  0  0  0  0  0  0  0  0  0  0  0
    1.0280    0.7850   -2.0620 H   0  0  0  0  0  0  0  0  0  0  0  0
    1.4360    2.0910   -0.9240 H   0  0  0  0  0  0  0  0  0  0  0  0
    2.1600   -1.5110   -1.7090 H   0  0  0  0  0  0  0  0  0  0  0  0
    4.1900   -2.5290   -0.5580 H   0  0  0  0  0  0  0  0  0  0  0  0
    5.2260   -1.0540    1.2280 H   0  0  0  0  0  0  0  0  0  0  0  0
   -1.1940   -0.9770    1.5540 H   0  0  0  0  0  0  0  0  0  0  0  0
   -1.9530   -1.9970    0.3060 H   0  0  0  0  0  0  0  0  0  0  0  0
   -5.3320   -1.9450   -0.0650 H   0  0  0  0  0  0  0  0  0  0  0  0
   -3.7150   -2.3150   -0.7110 H   0  0  0  0  0  0  0  0  0  0  0  0
   -3.9930   -2.3140    1.0470 H   0  0  0  0  0  0  0  0  0  0  0  0
   -3.1060    2.0330    0.1170 H   0  0  0  0  0  0  0  0  0  0  0  0
   -1.9570    1.6820    1.4320 H   0  0  0  0  0  0  0  0  0  0  0  0
   -0.7270    2.6820   -0.4350 H   0  0  0  0  0  0  0  0  0  0  0  0
   -1.4200    1.4990   -1.5700 H   0  0  0  0  0  0  0  0  0  0  0  0
   -0.7640   -0.7980   -1.4640 H   0  0  0  0  0  0  0  0  0  0  0  0
    0.4210   -1.3370   -0.2490 H   0  0  0  0  0  0  0  0  0  0  0  0
  9 11  1  0  0  0  0
 10 11  2  0  0  0  0
  8 11  1  0  0  0  0
  8 12  1  0  0  0  0
 12 13  1  0  0  0  0
  1 13  1  0  0  0  0
  1  2  1  0  0  0  0
  2  3  1  0  0  0  0
  3  4  2  0  0  0  0
  4  5  1  0  0  0  0
  5  6  2  0  0  0  0
  6 15  1  0  0  0  0
  3 15  1  0  0  0  0
  1 14  1  0  0  0  0
  7 14  1  0  0  0  0
  7  8  1  0  0  0  0
  2 16  1  0  0  0  0
  2 17  1  0  0  0  0
  4 18  1  0  0  0  0
  5 19  1  0  0  0  0
  6 20  1  0  0  0  0
  7 21  1  0  0  0  0
  7 22  1  0  0  0  0
  9 23  1  0  0  0  0
  9 24  1  0  0  0  0
  9 25  1  0  0  0  0
 12 26  1  0  0  0  0
 12 27  1  0  0  0  0
 13 28  1  0  0  0  0
 13 29  1  0  0  0  0
 14 30  1  0  0  0  0
 14 31  1  0  0  0  0
M  END
> <OPENEYE_ISO_SMILES>
CC(=O)N1CCN(CC1)Cc2cccs2

> <OPENEYE_INCHI>
InChI=1S/C11H16N2OS/c1-10(14)13-6-4-12(5-7-13)9-11-3-2-8-15-11/h2-3,8H,4-7,9H2,1H3

> <OPENEYE_INCHIKEY>
PEHVQKQLQOREKN-UHFFFAOYSA-N

> <FORMULA>
C11H16N2OS

$$$$
