VWV
  -OEChem-02242320043D

 29 29  0     0  0  0  0  0  0999 V2000
    0.0620    0.6110    0.1550 N   0  0  0  0  0  0  0  0  0  0  0  0
   -1.2600    1.1620   -0.1680 C   0  0  0  0  0  0  0  0  0  0  0  0
    0.3940   -0.5110   -0.7250 C   0  0  0  0  0  0  0  0  0  0  0  0
    1.5430   -1.3250   -0.1230 C   0  0  0  0  0  0  0  0  0  0  0  0
    2.3410    1.1760    0.8700 C   0  0  0  0  0  0  0  0  0  0  0  0
    1.0860    1.6590    0.1360 C   0  0  0  0  0  0  0  0  0  0  0  0
   -5.9820   -0.1460   -0.1630 C   0  0  0  0  0  0  0  0  0  0  0  0
   -4.5720   -0.6490    0.1520 C   0  0  0  0  0  0  0  0  0  0  0  0
   -3.6090    0.4020   -0.1270 O   0  0  0  0  0  0  0  0  0  0  0  0
   -2.3170    0.1200    0.0990 C   0  0  0  0  0  0  0  0  0  0  0  0
   -2.0000   -0.9690    0.5160 O   0  0  0  0  0  0  0  0  0  0  0  0
    3.0150   -0.2620   -0.0140 S   0  0  0  0  0  0  0  0  0  0  0  0
    3.3830    0.1410   -1.3260 O   0  0  0  0  0  0  0  0  0  0  0  0
    3.9770   -0.9000    0.8140 O   0  0  0  0  0  0  0  0  0  0  0  0
   -1.4510    2.0390    0.4500 H   0  0  0  0  0  0  0  0  0  0  0  0
   -1.2880    1.4460   -1.2200 H   0  0  0  0  0  0  0  0  0  0  0  0
   -0.4810   -1.1510   -0.8410 H   0  0  0  0  0  0  0  0  0  0  0  0
    0.6950   -0.1290   -1.7010 H   0  0  0  0  0  0  0  0  0  0  0  0
    1.2660   -1.6670    0.8740 H   0  0  0  0  0  0  0  0  0  0  0  0
    1.7580   -2.1820   -0.7600 H   0  0  0  0  0  0  0  0  0  0  0  0
    3.0830    1.9740    0.8900 H   0  0  0  0  0  0  0  0  0  0  0  0
    2.0810    0.8930    1.8900 H   0  0  0  0  0  0  0  0  0  0  0  0
    1.3400    1.8980   -0.8960 H   0  0  0  0  0  0  0  0  0  0  0  0
    0.7000    2.5520    0.6280 H   0  0  0  0  0  0  0  0  0  0  0  0
   -6.7040   -0.9340    0.0460 H   0  0  0  0  0  0  0  0  0  0  0  0
   -6.2040    0.7240    0.4550 H   0  0  0  0  0  0  0  0  0  0  0  0
   -6.0420    0.1320   -1.2160 H   0  0  0  0  0  0  0  0  0  0  0  0
   -4.5120   -0.9260    1.2050 H   0  0  0  0  0  0  0  0  0  0  0  0
   -4.3500   -1.5180   -0.4660 H   0  0  0  0  0  0  0  0  0  0  0  0
  4 12  1  0  0  0  0
  3  4  1  0  0  0  0
 12 14  2  0  0  0  0
 12 13  2  0  0  0  0
  5 12  1  0  0  0  0
  1  3  1  0  0  0  0
  1  2  1  0  0  0  0
  1  6  1  0  0  0  0
  5  6  1  0  0  0  0
  2 10  1  0  0  0  0
  7  8  1  0  0  0  0
  8  9  1  0  0  0  0
  9 10  1  0  0  0  0
 10 11  2  0  0  0  0
  2 15  1  0  0  0  0
  2 16  1  0  0  0  0
  3 17  1  0  0  0  0
  3 18  1  0  0  0  0
  4 19  1  0  0  0  0
  4 20  1  0  0  0  0
  5 21  1  0  0  0  0
  5 22  1  0  0  0  0
  6 23  1  0  0  0  0
  6 24  1  0  0  0  0
  7 25  1  0  0  0  0
  7 26  1  0  0  0  0
  7 27  1  0  0  0  0
  8 28  1  0  0  0  0
  8 29  1  0  0  0  0
M  END
> <OPENEYE_ISO_SMILES>
CCOC(=O)CN1CCS(=O)(=O)CC1

> <OPENEYE_INCHI>
InChI=1S/C8H15NO4S/c1-2-13-8(10)7-9-3-5-14(11,12)6-4-9/h2-7H2,1H3

> <OPENEYE_INCHIKEY>
KWVBKMSCALADDC-UHFFFAOYSA-N

> <FORMULA>
C8H15NO4S

$$$$
