HUO
  -OEChem-02242320023D

 86 89  0     1  0  0  0  0  0999 V2000
    5.4410    3.1060    1.7890 C   0  0  0  0  0  0  0  0  0  0  0  0
    3.3290    0.0440    0.7180 C   0  0  1  0  0  0  0  0  0  0  0  0
    0.9020    0.1320    0.5180 C   0  0  0  0  0  0  0  0  0  0  0  0
    5.3880    3.6840   -0.5380 N   0  0  0  0  0  0  0  0  0  0  0  0
   -2.7430    0.4100    0.5260 C   0  0  0  0  0  0  0  0  0  0  0  0
   -1.4750    0.3390    0.0750 N   0  0  0  0  0  0  0  0  0  0  0  0
    3.6690    1.3320    1.4690 C   0  0  0  0  0  0  0  0  0  0  0  0
   -3.8030    1.0820   -0.3090 C   0  0  2  0  0  0  0  0  0  0  0  0
    4.7830    2.4860   -0.4490 C   0  0  0  0  0  0  0  0  0  0  0  0
    4.3370   -1.0210    1.0650 C   0  0  0  0  0  0  0  0  0  0  0  0
    5.5780   -1.1420    0.2840 C   0  0  0  0  0  0  0  0  0  0  0  0
    7.6230   -1.9320   -0.2270 C   0  0  0  0  0  0  0  0  0  0  0  0
    7.4990   -1.0410   -1.3050 C   0  0  0  0  0  0  0  0  0  0  0  0
    8.8110   -2.6970   -0.1240 C   0  0  0  0  0  0  0  0  0  0  0  0
    9.7990   -2.5630   -1.0470 C   0  0  0  0  0  0  0  0  0  0  0  0
    9.6690   -1.6760   -2.1090 C   0  0  0  0  0  0  0  0  0  0  0  0
    8.5270   -0.9200   -2.2400 C   0  0  0  0  0  0  0  0  0  0  0  0
   -0.5350   -1.8880    0.4440 C   0  0  0  0  0  0  0  0  0  0  0  0
   -1.8820   -2.4700    0.8760 C   0  0  0  0  0  0  0  0  0  0  0  0
   -1.9990   -3.9120    0.3790 C   0  0  0  0  0  0  0  0  0  0  0  0
   -1.9820   -2.4470    2.4030 C   0  0  0  0  0  0  0  0  0  0  0  0
   -6.1350    0.5990   -0.8240 C   0  0  0  0  0  0  0  0  0  0  0  0
   -3.7650    2.5920   -0.0630 C   0  0  0  0  0  0  0  0  0  0  0  0
   -3.8990    2.8680    1.4360 C   0  0  0  0  0  0  0  0  0  0  0  0
   -2.4370    3.1570   -0.5690 C   0  0  0  0  0  0  0  0  0  0  0  0
   -8.3920    0.1940   -1.4870 C   0  0  0  0  0  0  0  0  0  0  0  0
   -9.6660   -0.3860   -0.9290 C   0  0  0  0  0  0  0  0  0  0  0  0
   -9.9340   -1.7340   -1.0760 C   0  0  0  0  0  0  0  0  0  0  0  0
   -0.4690   -0.4100    0.8320 C   0  0  1  0  0  0  0  0  0  0  0  0
  -11.1030   -2.2660   -0.5650 C   0  0  0  0  0  0  0  0  0  0  0  0
  -12.0040   -1.4500    0.0940 C   0  0  0  0  0  0  0  0  0  0  0  0
  -11.7350   -0.1020    0.2410 C   0  0  0  0  0  0  0  0  0  0  0  0
  -10.5640    0.4290   -0.2660 C   0  0  0  0  0  0  0  0  0  0  0  0
    4.9840    1.9030    0.9320 C   0  0  1  0  0  0  0  0  0  0  0  0
    6.0540    4.0390    0.7210 C   0  0  0  0  0  0  0  0  0  0  0  0
    1.9900   -0.4070    1.1040 N   0  0  0  0  0  0  0  0  0  0  0  0
    6.5600   -1.9300    0.5740 N   0  0  0  0  0  0  0  0  0  0  0  0
   -5.1200    0.5600    0.0630 N   0  0  0  0  0  0  0  0  0  0  0  0
   -3.0310   -0.0660    1.6030 O   0  0  0  0  0  0  0  0  0  0  0  0
    1.0270    1.0520   -0.2610 O   0  0  0  0  0  0  0  0  0  0  0  0
    4.1260   -1.7790    1.9880 O   0  0  0  0  0  0  0  0  0  0  0  0
    4.1660    1.9520   -1.3460 O   0  0  0  0  0  0  0  0  0  0  0  0
   -7.3460    0.1190   -0.4820 O   0  0  0  0  0  0  0  0  0  0  0  0
   -5.9570    1.0670   -1.9310 O   0  0  0  0  0  0  0  0  0  0  0  0
    5.9350   -0.2390   -1.1820 S   0  0  0  0  0  0  0  0  0  0  0  0
    4.5910    3.5810    2.2800 H   0  0  0  0  0  0  0  0  0  0  0  0
    6.1920    2.8030    2.5190 H   0  0  0  0  0  0  0  0  0  0  0  0
    3.3540    0.2310   -0.3560 H   0  0  0  0  0  0  0  0  0  0  0  0
    5.3840    4.2410   -1.3310 H   0  0  0  0  0  0  0  0  0  0  0  0
   -1.2280    0.7840   -0.7510 H   0  0  0  0  0  0  0  0  0  0  0  0
    2.8710    2.0600    1.3220 H   0  0  0  0  0  0  0  0  0  0  0  0
    3.7740    1.1170    2.5320 H   0  0  0  0  0  0  0  0  0  0  0  0
   -3.6160    0.8810   -1.3640 H   0  0  0  0  0  0  0  0  0  0  0  0
    8.9320   -3.3920    0.6940 H   0  0  0  0  0  0  0  0  0  0  0  0
   10.6990   -3.1530   -0.9530 H   0  0  0  0  0  0  0  0  0  0  0  0
   10.4640   -1.5820   -2.8340 H   0  0  0  0  0  0  0  0  0  0  0  0
    8.4280   -0.2320   -3.0660 H   0  0  0  0  0  0  0  0  0  0  0  0
    0.2710   -2.4300    0.9400 H   0  0  0  0  0  0  0  0  0  0  0  0
   -0.4260   -1.9850   -0.6360 H   0  0  0  0  0  0  0  0  0  0  0  0
   -2.6890   -1.8720    0.4510 H   0  0  0  0  0  0  0  0  0  0  0  0
   -1.1920   -4.5090    0.8040 H   0  0  0  0  0  0  0  0  0  0  0  0
   -2.9590   -4.3260    0.6870 H   0  0  0  0  0  0  0  0  0  0  0  0
   -1.9280   -3.9280   -0.7090 H   0  0  0  0  0  0  0  0  0  0  0  0
   -1.1750   -3.0440    2.8280 H   0  0  0  0  0  0  0  0  0  0  0  0
   -1.8980   -1.4200    2.7570 H   0  0  0  0  0  0  0  0  0  0  0  0
   -2.9420   -2.8610    2.7110 H   0  0  0  0  0  0  0  0  0  0  0  0
   -4.5890    3.0670   -0.5950 H   0  0  0  0  0  0  0  0  0  0  0  0
   -3.0750    2.3920    1.9680 H   0  0  0  0  0  0  0  0  0  0  0  0
   -3.8720    3.9430    1.6110 H   0  0  0  0  0  0  0  0  0  0  0  0
   -4.8450    2.4650    1.7960 H   0  0  0  0  0  0  0  0  0  0  0  0
   -1.6120    2.6620   -0.0570 H   0  0  0  0  0  0  0  0  0  0  0  0
   -2.3540    2.9850   -1.6420 H   0  0  0  0  0  0  0  0  0  0  0  0
   -2.3980    4.2280   -0.3690 H   0  0  0  0  0  0  0  0  0  0  0  0
   -8.0900   -0.3720   -2.3680 H   0  0  0  0  0  0  0  0  0  0  0  0
   -8.5560    1.2350   -1.7630 H   0  0  0  0  0  0  0  0  0  0  0  0
   -9.2300   -2.3720   -1.5900 H   0  0  0  0  0  0  0  0  0  0  0  0
   -0.6650   -0.3050    1.8990 H   0  0  0  0  0  0  0  0  0  0  0  0
  -11.3130   -3.3190   -0.6800 H   0  0  0  0  0  0  0  0  0  0  0  0
  -12.9170   -1.8650    0.4930 H   0  0  0  0  0  0  0  0  0  0  0  0
  -12.4390    0.5360    0.7550 H   0  0  0  0  0  0  0  0  0  0  0  0
  -10.3530    1.4820   -0.1480 H   0  0  0  0  0  0  0  0  0  0  0  0
    5.7540    1.1320    0.9150 H   0  0  0  0  0  0  0  0  0  0  0  0
    5.8560    5.0810    0.9720 H   0  0  0  0  0  0  0  0  0  0  0  0
    7.1270    3.8670    0.6410 H   0  0  0  0  0  0  0  0  0  0  0  0
    1.8860   -1.0940    1.7810 H   0  0  0  0  0  0  0  0  0  0  0  0
   -5.2620    0.1860    0.9460 H   0  0  0  0  0  0  0  0  0  0  0  0
 15 16  2  0  0  0  0
 16 17  1  0  0  0  0
 14 15  1  0  0  0  0
 13 17  2  0  0  0  0
 12 13  1  0  0  0  0
 13 45  1  0  0  0  0
 12 14  2  0  0  0  0
 12 37  1  0  0  0  0
 11 45  1  0  0  0  0
 11 37  2  0  0  0  0
 10 11  1  0  0  0  0
 10 41  2  0  0  0  0
  2 10  1  0  0  0  0
 19 21  1  0  0  0  0
  2 36  1  0  0  0  0
  2  7  1  0  0  0  0
 18 19  1  0  0  0  0
 18 29  1  0  0  0  0
  3 36  1  0  0  0  0
 19 20  1  0  0  0  0
  7 34  1  0  0  0  0
  3 40  2  0  0  0  0
  3 29  1  0  0  0  0
  6 29  1  0  0  0  0
  1 34  1  0  0  0  0
  9 34  1  0  0  0  0
  1 35  1  0  0  0  0
  5  6  1  0  0  0  0
  9 42  2  0  0  0  0
  4  9  1  0  0  0  0
  4 35  1  0  0  0  0
  5 39  2  0  0  0  0
  5  8  1  0  0  0  0
 23 25  1  0  0  0  0
  8 23  1  0  0  0  0
  8 38  1  0  0  0  0
 23 24  1  0  0  0  0
 22 38  1  0  0  0  0
 22 44  2  0  0  0  0
 22 43  1  0  0  0  0
 26 43  1  0  0  0  0
 26 27  1  0  0  0  0
 27 28  2  0  0  0  0
 28 30  1  0  0  0  0
 27 33  1  0  0  0  0
 30 31  2  0  0  0  0
 32 33  2  0  0  0  0
 31 32  1  0  0  0  0
  1 46  1  0  0  0  0
  1 47  1  0  0  0  0
  2 48  1  0  0  0  0
  4 49  1  0  0  0  0
  6 50  1  0  0  0  0
  7 51  1  0  0  0  0
  7 52  1  0  0  0  0
  8 53  1  0  0  0  0
 14 54  1  0  0  0  0
 15 55  1  0  0  0  0
 16 56  1  0  0  0  0
 17 57  1  0  0  0  0
 18 58  1  0  0  0  0
 18 59  1  0  0  0  0
 19 60  1  0  0  0  0
 20 61  1  0  0  0  0
 20 62  1  0  0  0  0
 20 63  1  0  0  0  0
 21 64  1  0  0  0  0
 21 65  1  0  0  0  0
 21 66  1  0  0  0  0
 23 67  1  0  0  0  0
 24 68  1  0  0  0  0
 24 69  1  0  0  0  0
 24 70  1  0  0  0  0
 25 71  1  0  0  0  0
 25 72  1  0  0  0  0
 25 73  1  0  0  0  0
 26 74  1  0  0  0  0
 26 75  1  0  0  0  0
 28 76  1  0  0  0  0
 29 77  1  0  0  0  0
 30 78  1  0  0  0  0
 31 79  1  0  0  0  0
 32 80  1  0  0  0  0
 33 81  1  0  0  0  0
 34 82  1  0  0  0  0
 35 83  1  0  0  0  0
 35 84  1  0  0  0  0
 36 85  1  0  0  0  0
 38 86  1  0  0  0  0
M  END
> <OPENEYE_ISO_SMILES>
CC(C)C[C@@H](C(=O)N[C@@H](C[C@@H]1CCNC1=O)C(=O)c2nc3ccccc3s2)NC(=O)[C@H](C(C)C)NC(=O)OCc4ccccc4

> <OPENEYE_INCHI>
InChI=1S/C33H41N5O6S/c1-19(2)16-25(36-31(42)27(20(3)4)38-33(43)44-18-21-10-6-5-7-11-21)30(41)35-24(17-22-14-15-34-29(22)40)28(39)32-37-23-12-8-9-13-26(23)45-32/h5-13,19-20,22,24-25,27H,14-18H2,1-4H3,(H,34,40)(H,35,41)(H,36,42)(H,38,43)/t22-,24-,25-,27-/m0/s1

> <OPENEYE_INCHIKEY>
KSCRVOKQPYZBHZ-IXPOFIJOSA-N

> <FORMULA>
C33H41N5O6S

$$$$
