@<TRIPOS>MOLECULE
/home/pku/3cl/gett_pdb/5RTT/5RTT_mol2/ligand/5RTT_NMI.pdb
 27 28 0 0 0
SMALL
GASTEIGER

@<TRIPOS>ATOM
      1  CAA      -43.6740  -25.5130   -0.4290 C.3   201  NMI201      0.0119
      2  NAN      -44.4090  -26.6630   -0.0190 N.ar  201  NMI201     -0.3494
      3  CAH      -43.7280  -27.4630    0.7040 C.ar  201  NMI201      0.0086
      4  CAM      -45.6600  -27.1440   -0.1860 C.ar  201  NMI201      0.0491
      5  CAG      -46.7820  -26.7000   -0.9400 C.ar  201  NMI201     -0.0376
      6  CAE      -48.0150  -27.3890   -0.8770 C.ar  201  NMI201     -0.0598
      7  CAD      -48.0820  -28.6100   -0.1280 C.ar  201  NMI201     -0.0611
      8  CAF      -46.9340  -29.0450    0.5110 C.ar  201  NMI201     -0.0523
      9  CAL      -45.7380  -28.3320    0.5110 C.ar  201  NMI201      0.0030
     10  CAK      -44.4850  -28.5070    1.1050 C.ar  201  NMI201     -0.0218
     11  CAJ      -43.9510  -29.5780    2.0640 C.3   201  NMI201     -0.0198
     12  CAI      -43.8530  -30.9730    1.5530 C.3   201  NMI201      0.0001
     13  CAC      -43.6400  -31.8610    2.7460 C.2   201  NMI201      0.0874
     14  OAB      -44.0380  -32.9920    2.5680 O.co2 201  NMI201     -0.8476
     15  O1       -43.0460  -31.5210    3.7580 O.co2 201  NMI201     -0.3090
     16  H1       -44.1820  -24.7150   -0.2170 H     201  NMI201      0.0456
     17  H2       -42.8230  -25.4860    0.0350 H     201  NMI201      0.0456
     18  H3       -43.5190  -25.5530   -1.3860 H     201  NMI201      0.0456
     19  H4       -42.8530  -27.3120    0.9800 H     201  NMI201      0.0812
     20  H5       -46.7360  -25.8880   -1.3920 H     201  NMI201      0.0638
     21  H6       -48.7440  -27.1000   -1.3770 H     201  NMI201      0.0618
     22  H7       -48.8550  -29.1270   -0.1280 H     201  NMI201      0.0618
     23  H8       -46.9820  -29.8210    1.0210 H     201  NMI201      0.0624
     24  H9       -44.5260  -29.5890    2.8450 H     201  NMI201      0.0318
     25  H10      -43.0650  -29.3040    2.3490 H     201  NMI201      0.0318
     26  H11      -43.1020  -31.0510    0.9440 H     201  NMI201      0.0336
     27  H12      -44.6750  -31.2180    1.1000 H     201  NMI201      0.0336
@<TRIPOS>UNITY_ATOM_ATTR
14 1
charge -1
@<TRIPOS>BOND
     1    20     5    1
     2    18     1    1
     3    21     6    1
     4     5     6   ar
     5     5     4   ar
     6     6     7   ar
     7     1    16    1
     8     1     2    1
     9     1    17    1
    10     4     2   ar
    11     4     9   ar
    12     7    22    1
    13     7     8   ar
    14     2     3   ar
    15     9     8   ar
    16     9    10   ar
    17     8    23    1
    18     3    19    1
    19     3    10   ar
    20    26    12    1
    21    27    12    1
    22    10    11    1
    23    12    11    1
    24    12    13    1
    25    11    25    1
    26    11    24    1
    27    14    13   ar
    28    13    15   ar
