I69
  -OEChem-02242320023D

 78 80  0     1  0  0  0  0  0999 V2000
    0.2640    4.6470   -2.1250 C   0  0  0  0  0  0  0  0  0  0  0  0
   -2.2440    0.4660    0.5170 C   0  0  2  0  0  0  0  0  0  0  0  0
   -0.7860    0.2580    0.1950 C   0  0  0  0  0  0  0  0  0  0  0  0
   -0.5360    2.6510   -0.5290 C   0  0  0  0  0  0  0  0  0  0  0  0
    1.3340    1.1730   -0.7820 C   0  0  2  0  0  0  0  0  0  0  0  0
    2.2280    0.7870    0.3690 C   0  0  0  0  0  0  0  0  0  0  0  0
    0.3820    3.2200   -1.6230 C   0  0  0  0  0  0  0  0  0  0  0  0
    4.3260   -0.0860    1.2490 C   0  0  1  0  0  0  0  0  0  0  0  0
    5.3260   -1.1460    0.7850 C   0  0  0  0  0  0  0  0  0  0  0  0
   -0.0990    3.4710   -3.0400 C   0  0  0  0  0  0  0  0  0  0  0  0
    4.5760   -2.4260    0.4090 C   0  0  2  0  0  0  0  0  0  0  0  0
    5.5690   -3.5250   -0.0340 C   0  0  0  0  0  0  0  0  0  0  0  0
    5.5880   -3.3320   -1.5670 C   0  0  0  0  0  0  0  0  0  0  0  0
    3.7110   -2.1930   -0.8100 C   0  0  0  0  0  0  0  0  0  0  0  0
   -1.9700   -0.4050    2.8430 C   0  0  0  0  0  0  0  0  0  0  0  0
   -6.6380   -0.8690   -1.8860 C   0  0  0  0  0  0  0  0  0  0  0  0
   -7.1700   -1.1450    0.5400 C   0  0  0  0  0  0  0  0  0  0  0  0
   -6.9570   -3.1550   -0.9290 C   0  0  0  0  0  0  0  0  0  0  0  0
   -2.3950    0.8010    2.0020 C   0  0  0  0  0  0  0  0  0  0  0  0
   -1.5100    2.0000    2.3470 C   0  0  0  0  0  0  0  0  0  0  0  0
   -3.8560    1.1420    2.3020 C   0  0  0  0  0  0  0  0  0  0  0  0
    1.7400    2.5640   -1.3190 C   0  0  0  0  0  0  0  0  0  0  0  0
   -6.4240   -1.7470   -0.6520 C   0  0  0  0  0  0  0  0  0  0  0  0
    5.0830    1.1480    1.7420 C   0  0  0  0  0  0  0  0  0  0  0  0
   -4.3060   -0.6930   -0.0670 C   0  0  0  0  0  0  0  0  0  0  0  0
   -2.9900   -0.7580    0.2140 N   0  0  0  0  0  0  0  0  0  0  0  0
   -0.0610    1.2680   -0.3250 N   0  0  0  0  0  0  0  0  0  0  0  0
    3.4570    0.2890    0.1300 N   0  0  0  0  0  0  0  0  0  0  0  0
    4.2980   -2.7160   -1.9000 N   0  0  0  0  0  0  0  0  0  0  0  0
   -4.9930   -1.8190   -0.3460 N   0  0  0  0  0  0  0  0  0  0  0  0
    2.6420   -1.6200   -0.8040 O   0  0  0  0  0  0  0  0  0  0  0  0
   -4.8750    0.3820   -0.0700 O   0  0  0  0  0  0  0  0  0  0  0  0
   -0.2660   -0.8180    0.4030 O   0  0  0  0  0  0  0  0  0  0  0  0
    1.8410    0.9260    1.5100 O   0  0  0  0  0  0  0  0  0  0  0  0
    5.9650    1.6080    0.7160 O   0  0  0  0  0  0  0  0  0  0  0  0
   -0.5540    5.2520   -1.7350 H   0  0  0  0  0  0  0  0  0  0  0  0
    1.1880    5.1840   -2.3370 H   0  0  0  0  0  0  0  0  0  0  0  0
   -2.6350    1.2870   -0.0820 H   0  0  0  0  0  0  0  0  0  0  0  0
   -0.4330    3.2270    0.3910 H   0  0  0  0  0  0  0  0  0  0  0  0
   -1.5730    2.6510   -0.8650 H   0  0  0  0  0  0  0  0  0  0  0  0
    1.4140    0.4310   -1.5770 H   0  0  0  0  0  0  0  0  0  0  0  0
    3.7190   -0.4890    2.0610 H   0  0  0  0  0  0  0  0  0  0  0  0
    5.8710   -0.7760   -0.0830 H   0  0  0  0  0  0  0  0  0  0  0  0
    6.0280   -1.3600    1.5910 H   0  0  0  0  0  0  0  0  0  0  0  0
   -1.1550    3.3040   -3.2510 H   0  0  0  0  0  0  0  0  0  0  0  0
    0.5870    3.2360   -3.8530 H   0  0  0  0  0  0  0  0  0  0  0  0
    3.9700   -2.7720    1.2470 H   0  0  0  0  0  0  0  0  0  0  0  0
    6.5570   -3.3530    0.3930 H   0  0  0  0  0  0  0  0  0  0  0  0
    5.1980   -4.5150    0.2300 H   0  0  0  0  0  0  0  0  0  0  0  0
    6.4070   -2.6730   -1.8540 H   0  0  0  0  0  0  0  0  0  0  0  0
    5.6850   -4.2960   -2.0670 H   0  0  0  0  0  0  0  0  0  0  0  0
   -2.6000   -1.2600    2.5970 H   0  0  0  0  0  0  0  0  0  0  0  0
   -0.9290   -0.6480    2.6300 H   0  0  0  0  0  0  0  0  0  0  0  0
   -2.0780   -0.1660    3.9010 H   0  0  0  0  0  0  0  0  0  0  0  0
   -7.7030   -0.8160   -2.1130 H   0  0  0  0  0  0  0  0  0  0  0  0
   -6.2580    0.1340   -1.6890 H   0  0  0  0  0  0  0  0  0  0  0  0
   -6.1060   -1.2980   -2.7350 H   0  0  0  0  0  0  0  0  0  0  0  0
   -8.2350   -1.0910    0.3120 H   0  0  0  0  0  0  0  0  0  0  0  0
   -7.0180   -1.7700    1.4190 H   0  0  0  0  0  0  0  0  0  0  0  0
   -6.7910   -0.1420    0.7370 H   0  0  0  0  0  0  0  0  0  0  0  0
   -6.4240   -3.5840   -1.7780 H   0  0  0  0  0  0  0  0  0  0  0  0
   -6.8040   -3.7800   -0.0490 H   0  0  0  0  0  0  0  0  0  0  0  0
   -8.0210   -3.1020   -1.1560 H   0  0  0  0  0  0  0  0  0  0  0  0
   -0.4630    1.7280    2.2180 H   0  0  0  0  0  0  0  0  0  0  0  0
   -1.7530    2.8330    1.6870 H   0  0  0  0  0  0  0  0  0  0  0  0
   -1.6840    2.2940    3.3820 H   0  0  0  0  0  0  0  0  0  0  0  0
   -3.9640    1.3810    3.3600 H   0  0  0  0  0  0  0  0  0  0  0  0
   -4.1590    2.0010    1.7030 H   0  0  0  0  0  0  0  0  0  0  0  0
   -4.4860    0.2870    2.0560 H   0  0  0  0  0  0  0  0  0  0  0  0
    2.2810    3.1290   -0.5590 H   0  0  0  0  0  0  0  0  0  0  0  0
    2.3350    2.4690   -2.2270 H   0  0  0  0  0  0  0  0  0  0  0  0
    4.3710    1.9360    1.9900 H   0  0  0  0  0  0  0  0  0  0  0  0
    5.6610    0.8900    2.6300 H   0  0  0  0  0  0  0  0  0  0  0  0
   -2.5360   -1.6160    0.2160 H   0  0  0  0  0  0  0  0  0  0  0  0
    3.7660    0.1770   -0.7820 H   0  0  0  0  0  0  0  0  0  0  0  0
    3.9190   -2.6880   -2.7920 H   0  0  0  0  0  0  0  0  0  0  0  0
   -4.5390   -2.6760   -0.3440 H   0  0  0  0  0  0  0  0  0  0  0  0
    6.4790    2.3900    0.9600 H   0  0  0  0  0  0  0  0  0  0  0  0
 15 19  1  0  0  0  0
 19 20  1  0  0  0  0
 19 21  1  0  0  0  0
  2 19  1  0  0  0  0
 25 32  2  0  0  0  0
  1  7  1  0  0  0  0
  1 10  1  0  0  0  0
  4  7  1  0  0  0  0
  4 27  1  0  0  0  0
  2 26  1  0  0  0  0
  2  3  1  0  0  0  0
  6 34  2  0  0  0  0
  7 22  1  0  0  0  0
  7 10  1  0  0  0  0
 25 26  1  0  0  0  0
 25 30  1  0  0  0  0
  3 27  1  0  0  0  0
  5 27  1  0  0  0  0
  5 22  1  0  0  0  0
 16 23  1  0  0  0  0
  3 33  2  0  0  0  0
 12 13  1  0  0  0  0
 11 12  1  0  0  0  0
  5  6  1  0  0  0  0
  6 28  1  0  0  0  0
 18 23  1  0  0  0  0
 13 29  1  0  0  0  0
 23 30  1  0  0  0  0
 17 23  1  0  0  0  0
  8 28  1  0  0  0  0
  8 24  1  0  0  0  0
  8  9  1  0  0  0  0
 24 35  1  0  0  0  0
  9 11  1  0  0  0  0
 11 14  1  0  0  0  0
 14 29  1  0  0  0  0
 14 31  2  0  0  0  0
  1 36  1  0  0  0  0
  1 37  1  0  0  0  0
  2 38  1  0  0  0  0
  4 39  1  0  0  0  0
  4 40  1  0  0  0  0
  5 41  1  0  0  0  0
  8 42  1  0  0  0  0
  9 43  1  0  0  0  0
  9 44  1  0  0  0  0
 10 45  1  0  0  0  0
 10 46  1  0  0  0  0
 11 47  1  0  0  0  0
 12 48  1  0  0  0  0
 12 49  1  0  0  0  0
 13 50  1  0  0  0  0
 13 51  1  0  0  0  0
 15 52  1  0  0  0  0
 15 53  1  0  0  0  0
 15 54  1  0  0  0  0
 16 55  1  0  0  0  0
 16 56  1  0  0  0  0
 16 57  1  0  0  0  0
 17 58  1  0  0  0  0
 17 59  1  0  0  0  0
 17 60  1  0  0  0  0
 18 61  1  0  0  0  0
 18 62  1  0  0  0  0
 18 63  1  0  0  0  0
 20 64  1  0  0  0  0
 20 65  1  0  0  0  0
 20 66  1  0  0  0  0
 21 67  1  0  0  0  0
 21 68  1  0  0  0  0
 21 69  1  0  0  0  0
 22 70  1  0  0  0  0
 22 71  1  0  0  0  0
 24 72  1  0  0  0  0
 24 73  1  0  0  0  0
 26 74  1  0  0  0  0
 28 75  1  0  0  0  0
 29 76  1  0  0  0  0
 30 77  1  0  0  0  0
 35 78  1  0  0  0  0
M  END
> <OPENEYE_ISO_SMILES>
CC(C)(C)[C@@H](C(=O)N1CC2(CC2)C[C@H]1C(=O)N[C@@H](C[C@@H]3CCNC3=O)CO)NC(=O)NC(C)(C)C

> <OPENEYE_INCHI>
InChI=1S/C25H43N5O5/c1-23(2,3)18(28-22(35)29-24(4,5)6)21(34)30-14-25(8-9-25)12-17(30)20(33)27-16(13-31)11-15-7-10-26-19(15)32/h15-18,31H,7-14H2,1-6H3,(H,26,32)(H,27,33)(H2,28,29,35)/t15-,16-,17-,18+/m0/s1

> <OPENEYE_INCHIKEY>
QPINBLRCPHAOCS-XLAORIBOSA-N

> <FORMULA>
C25H43N5O5

$$$$
