UVA
  -OEChem-02242320043D

 23 23  0     0  0  0  0  0  0999 V2000
    1.7480   -2.2440    0.0520 C   0  0  0  0  0  0  0  0  0  0  0  0
    0.4150   -1.8790    0.0050 C   0  0  0  0  0  0  0  0  0  0  0  0
    0.0650   -0.5430   -0.0280 C   0  0  0  0  0  0  0  0  0  0  0  0
   -1.9240    0.7830    1.4800 C   0  0  0  0  0  0  0  0  0  0  0  0
    0.7010    1.7850   -0.0470 N   0  0  0  0  0  0  0  0  0  0  0  0
    1.7440    2.8130   -0.0320 C   0  0  0  0  0  0  0  0  0  0  0  0
   -1.7100    0.8300   -1.1790 O   0  0  0  0  0  0  0  0  0  0  0  0
    1.0520    0.4330   -0.0140 C   0  0  0  0  0  0  0  0  0  0  0  0
    2.3900    0.0620    0.0340 C   0  0  0  0  0  0  0  0  0  0  0  0
    2.7340   -1.2740    0.0660 C   0  0  0  0  0  0  0  0  0  0  0  0
   -2.3350   -1.3150   -0.1160 O   0  0  0  0  0  0  0  0  0  0  0  0
   -1.6340   -0.0790   -0.0890 S   0  0  0  0  0  0  0  0  0  0  0  0
    2.0200   -3.2890    0.0820 H   0  0  0  0  0  0  0  0  0  0  0  0
   -0.3520   -2.6390   -0.0060 H   0  0  0  0  0  0  0  0  0  0  0  0
   -1.2670    1.6500    1.5450 H   0  0  0  0  0  0  0  0  0  0  0  0
   -2.9630    1.1090    1.5290 H   0  0  0  0  0  0  0  0  0  0  0  0
   -1.7170    0.1070    2.3100 H   0  0  0  0  0  0  0  0  0  0  0  0
   -0.2340    2.0420   -0.0800 H   0  0  0  0  0  0  0  0  0  0  0  0
    2.3360    2.7170    0.8780 H   0  0  0  0  0  0  0  0  0  0  0  0
    2.3910    2.6880   -0.9010 H   0  0  0  0  0  0  0  0  0  0  0  0
    1.2820    3.8000   -0.0620 H   0  0  0  0  0  0  0  0  0  0  0  0
    3.1610    0.8190    0.0450 H   0  0  0  0  0  0  0  0  0  0  0  0
    3.7740   -1.5630    0.1030 H   0  0  0  0  0  0  0  0  0  0  0  0
  1  2  2  0  0  0  0
  1 10  1  0  0  0  0
  2  3  1  0  0  0  0
  7 12  2  0  0  0  0
  9 10  2  0  0  0  0
  3 12  1  0  0  0  0
  3  8  2  0  0  0  0
 11 12  2  0  0  0  0
  4 12  1  0  0  0  0
  8  9  1  0  0  0  0
  5  8  1  0  0  0  0
  5  6  1  0  0  0  0
  1 13  1  0  0  0  0
  2 14  1  0  0  0  0
  4 15  1  0  0  0  0
  4 16  1  0  0  0  0
  4 17  1  0  0  0  0
  5 18  1  0  0  0  0
  6 19  1  0  0  0  0
  6 20  1  0  0  0  0
  6 21  1  0  0  0  0
  9 22  1  0  0  0  0
 10 23  1  0  0  0  0
M  END
> <OPENEYE_ISO_SMILES>
CNc1ccccc1S(=O)(=O)C

> <OPENEYE_INCHI>
InChI=1S/C8H11NO2S/c1-9-7-5-3-4-6-8(7)12(2,10)11/h3-6,9H,1-2H3

> <OPENEYE_INCHIKEY>
YLDKGNWSSXYUAH-UHFFFAOYSA-N

> <FORMULA>
C8H11NO2S

$$$$
