RMU
  -OEChem-02242320043D

 31 32  0     0  0  0  0  0  0999 V2000
    2.9500   -0.5330    0.8820 C   0  0  0  0  0  0  0  0  0  0  0  0
    3.5920   -1.5510    1.6580 C   0  0  0  0  0  0  0  0  0  0  0  0
    3.3860   -0.2490   -0.4150 C   0  0  0  0  0  0  0  0  0  0  0  0
    1.7770    1.3830   -0.6700 C   0  0  0  0  0  0  0  0  0  0  0  0
    1.2860    1.1660    0.6130 C   0  0  0  0  0  0  0  0  0  0  0  0
   -4.5350   -1.8660    0.0770 C   0  0  0  0  0  0  0  0  0  0  0  0
    1.8730    0.1890    1.4080 C   0  0  0  0  0  0  0  0  0  0  0  0
    0.0130   -0.4450   -1.4630 C   0  0  0  0  0  0  0  0  0  0  0  0
   -1.3460   -0.4190   -0.8130 C   0  0  0  0  0  0  0  0  0  0  0  0
   -3.3390   -1.0460   -0.1430 C   0  0  0  0  0  0  0  0  0  0  0  0
   -3.1500    0.2310    0.3000 C   0  0  0  0  0  0  0  0  0  0  0  0
   -1.8760    0.6260   -0.1380 C   0  0  0  0  0  0  0  0  0  0  0  0
    0.2140    1.9230    1.0960 N   0  0  0  0  0  0  0  0  0  0  0  0
    2.7950    0.6840   -1.1340 N   0  0  0  0  0  0  0  0  0  0  0  0
    4.1010   -2.3590    2.2740 N   0  0  0  0  0  0  0  0  0  0  0  0
   -4.5910   -3.1210   -0.4120 N   0  0  0  0  0  0  0  0  0  0  0  0
   -2.2310   -1.4240   -0.8130 O   0  0  0  0  0  0  0  0  0  0  0  0
   -0.6150    2.6220   -1.1200 O   0  0  0  0  0  0  0  0  0  0  0  0
   -2.0230    2.9490    0.9190 O   0  0  0  0  0  0  0  0  0  0  0  0
   -5.4770   -1.4140    0.7010 O   0  0  0  0  0  0  0  0  0  0  0  0
   -1.1110    2.1880    0.1390 S   0  0  0  0  0  0  0  0  0  0  0  0
    4.7210   -1.1330   -1.0860 Cl  0  0  0  0  0  0  0  0  0  0  0  0
    1.3250    2.1410   -1.2920 H   0  0  0  0  0  0  0  0  0  0  0  0
    1.5070   -0.0080    2.4050 H   0  0  0  0  0  0  0  0  0  0  0  0
    0.7510   -0.8080   -0.7470 H   0  0  0  0  0  0  0  0  0  0  0  0
   -0.0110   -1.1090   -2.3270 H   0  0  0  0  0  0  0  0  0  0  0  0
    0.2820    0.5610   -1.7840 H   0  0  0  0  0  0  0  0  0  0  0  0
   -3.8460    0.8250    0.8740 H   0  0  0  0  0  0  0  0  0  0  0  0
    0.2470    2.2920    1.9930 H   0  0  0  0  0  0  0  0  0  0  0  0
   -3.8410   -3.4810   -0.9090 H   0  0  0  0  0  0  0  0  0  0  0  0
   -5.3820   -3.6630   -0.2660 H   0  0  0  0  0  0  0  0  0  0  0  0
  6 20  2  0  0  0  0
  6 16  1  0  0  0  0
  6 10  1  0  0  0  0
 10 17  1  0  0  0  0
 10 11  2  0  0  0  0
  9 17  1  0  0  0  0
  3 22  1  0  0  0  0
  2 15  3  0  0  0  0
 11 12  1  0  0  0  0
  1  2  1  0  0  0  0
  1  3  2  0  0  0  0
  3 14  1  0  0  0  0
  9 12  2  0  0  0  0
  8  9  1  0  0  0  0
  1  7  1  0  0  0  0
  4 14  2  0  0  0  0
 12 21  1  0  0  0  0
  5  7  2  0  0  0  0
  4  5  1  0  0  0  0
  5 13  1  0  0  0  0
 13 21  1  0  0  0  0
 18 21  2  0  0  0  0
 19 21  2  0  0  0  0
  4 23  1  0  0  0  0
  7 24  1  0  0  0  0
  8 25  1  0  0  0  0
  8 26  1  0  0  0  0
  8 27  1  0  0  0  0
 11 28  1  0  0  0  0
 13 29  1  0  0  0  0
 16 30  1  0  0  0  0
 16 31  1  0  0  0  0
M  END
> <OPENEYE_ISO_SMILES>
Cc1c(cc(o1)C(=O)N)S(=O)(=O)Nc2cc(c(nc2)Cl)C#N

> <OPENEYE_INCHI>
InChI=1S/C12H9ClN4O4S/c1-6-10(3-9(21-6)12(15)18)22(19,20)17-8-2-7(4-14)11(13)16-5-8/h2-3,5,17H,1H3,(H2,15,18)

> <OPENEYE_INCHIKEY>
WARQQVLLUYXXAU-UHFFFAOYSA-N

> <FORMULA>
C12H9ClN4O4S

$$$$
