@<TRIPOS>MOLECULE
/home/pku/3cl/gett_pdb/7WYM/7WYM_mol2/ligand/7WYM_G7L.pdb
 23 23 0 0 0
SMALL
GASTEIGER

@<TRIPOS>ATOM
      1  C01      229.2270   -5.9730   62.4740 C.2   401  G7L401     -0.0043
      2  C02      229.1050   -5.0800   63.4380 C.2   401  G7L401      0.0086
      3  C03      228.2330   -5.3710   64.6630 C.2   401  G7L401      0.2401
      4  C04      227.6200   -5.0190   67.0620 C.3   401  G7L401      0.0039
      5  C05      229.5540   -3.7560   66.0980 C.3   401  G7L401      0.0632
      6  C06      230.7830   -4.4990   66.6050 C.ar  401  G7L401      0.0962
      7  C07      232.4800   -6.1330   67.5350 C.ar  401  G7L401      0.0074
      8  C08      232.9720   -4.8800   67.1230 C.ar  401  G7L401      0.1510
      9  C09      234.4450   -4.4800   67.2110 C.3   401  G7L401      0.4347
     10  F01      234.9920   -4.4530   65.9610 F     401  G7L401     -0.1644
     11  F02      235.1310   -5.3730   67.9810 F     401  G7L401     -0.1644
     12  F03      234.5420   -3.2310   67.7560 F     401  G7L401     -0.1644
     13  N01      228.4750   -4.7100   65.9350 N.am  401  G7L401     -0.2947
     14  N02      232.0320   -4.0300   66.6280 N.ar  401  G7L401     -0.2384
     15  O01      227.3330   -6.1370   64.5960 O.2   401  G7L401     -0.2706
     16  S01      230.8140   -6.0710   67.2310 S.2   401  G7L401     -0.0784
     17  H3       229.5520   -4.2670   63.3720 H     401  G7L401      0.0676
     18  H4       227.4240   -5.9690   67.0680 H     401  G7L401      0.0429
     19  H5       228.0720   -4.7770   67.8860 H     401  G7L401      0.0429
     20  H6       226.7930   -4.5190   66.9880 H     401  G7L401      0.0429
     21  H7       229.7530   -3.3370   65.2460 H     401  G7L401      0.0534
     22  H8       229.2960   -3.0750   66.7380 H     401  G7L401      0.0534
     23  H9       232.9640   -6.8410   67.8950 H     401  G7L401      0.0715
@<TRIPOS>BOND
     1     1     2    2
     2    17     2    1
     3     2     3    1
     4    15     3    2
     5     3    13   am
     6    21     5    1
     7    13     5    1
     8    13     4    1
     9    10     9    1
    10     5     6    1
    11     5    22    1
    12     6    14   ar
    13     6    16   ar
    14    14     8   ar
    15    20     4    1
    16     4    18    1
    17     4    19    1
    18     8     9    1
    19     8     7   ar
    20     9    12    1
    21     9    11    1
    22    16     7   ar
    23     7    23    1
