VR4
  -OEChem-02242320043D

 77 79  0     1  0  0  0  0  0999 V2000
   -6.0980    0.2980   -0.6320 C   0  0  0  0  0  0  0  0  0  0  0  0
   -7.1370    0.2360    0.4580 C   0  0  0  0  0  0  0  0  0  0  0  0
   -8.6030    1.3460    1.9910 C   0  0  0  0  0  0  0  0  0  0  0  0
   -8.5340   -1.0460    1.9200 C   0  0  0  0  0  0  0  0  0  0  0  0
   -3.7260    0.3780   -0.8810 C   0  0  0  0  0  0  0  0  0  0  0  0
   -7.6500    1.4030    0.9910 C   0  0  0  0  0  0  0  0  0  0  0  0
   -9.0430    0.1210    2.4580 C   0  0  0  0  0  0  0  0  0  0  0  0
   -7.5810   -0.9890    0.9200 C   0  0  0  0  0  0  0  0  0  0  0  0
   -4.7740    0.3220   -0.0380 O   0  0  0  0  0  0  0  0  0  0  0  0
   -3.9130    0.4060   -2.0820 O   0  0  0  0  0  0  0  0  0  0  0  0
   -2.4700    0.4030   -0.3950 N   0  0  0  0  0  0  0  0  0  0  0  0
   -1.3280    0.3530   -1.3110 C   0  0  2  0  0  0  0  0  0  0  0  0
   -0.1570   -0.2960   -0.6200 C   0  0  0  0  0  0  0  0  0  0  0  0
   -0.1720   -0.4490    0.5830 O   0  0  0  0  0  0  0  0  0  0  0  0
   -0.9480    1.7740   -1.7320 C   0  0  0  0  0  0  0  0  0  0  0  0
    0.1530    1.7150   -2.7920 C   0  0  0  0  0  0  0  0  0  0  0  0
   -0.4070    1.1020   -4.0760 C   0  0  0  0  0  0  0  0  0  0  0  0
    0.6590    3.1300   -3.0810 C   0  0  0  0  0  0  0  0  0  0  0  0
    0.9070   -0.7060   -1.3380 N   0  0  0  0  0  0  0  0  0  0  0  0
    1.9990   -1.4310   -0.6830 C   0  0  1  0  0  0  0  0  0  0  0  0
    1.6930   -2.9300   -0.6910 C   0  0  0  0  0  0  0  0  0  0  0  0
    2.7620   -3.6730    0.1130 C   0  0  2  0  0  0  0  0  0  0  0  0
    2.5680   -5.2020   -0.0120 C   0  0  0  0  0  0  0  0  0  0  0  0
    2.9540   -5.6850    1.4040 C   0  0  0  0  0  0  0  0  0  0  0  0
    2.7060   -4.5420    2.2890 N   0  0  0  0  0  0  0  0  0  0  0  0
    2.5990   -3.3980    1.5920 C   0  0  0  0  0  0  0  0  0  0  0  0
    2.4010   -2.3040    2.0770 O   0  0  0  0  0  0  0  0  0  0  0  0
    3.3060   -1.1730   -1.4340 C   0  0  1  0  0  0  0  0  0  0  0  0
    3.1780   -1.6250   -2.7830 O   0  0  0  0  0  0  0  0  0  0  0  0
    3.6070    0.3040   -1.4250 C   0  0  0  0  0  0  0  0  0  0  0  0
    3.6130    0.9280   -2.4660 O   0  0  0  0  0  0  0  0  0  0  0  0
    3.8710    0.9310   -0.2620 N   0  0  0  0  0  0  0  0  0  0  0  0
    4.1630    2.3670   -0.2540 C   0  0  0  0  0  0  0  0  0  0  0  0
    4.4200    2.8190    1.1610 C   0  0  0  0  0  0  0  0  0  0  0  0
    5.7030    2.7890    1.6730 C   0  0  0  0  0  0  0  0  0  0  0  0
    5.9390    3.2040    2.9710 C   0  0  0  0  0  0  0  0  0  0  0  0
    4.8910    3.6480    3.7560 C   0  0  0  0  0  0  0  0  0  0  0  0
    3.6080    3.6780    3.2430 C   0  0  0  0  0  0  0  0  0  0  0  0
    3.3730    3.2690    1.9440 C   0  0  0  0  0  0  0  0  0  0  0  0
   -6.1920   -0.5780   -1.2740 H   0  0  0  0  0  0  0  0  0  0  0  0
   -6.2470    1.2010   -1.2250 H   0  0  0  0  0  0  0  0  0  0  0  0
   -9.0040    2.2580    2.4080 H   0  0  0  0  0  0  0  0  0  0  0  0
   -8.8770   -2.0030    2.2850 H   0  0  0  0  0  0  0  0  0  0  0  0
   -7.3070    2.3600    0.6270 H   0  0  0  0  0  0  0  0  0  0  0  0
   -9.7830    0.0760    3.2420 H   0  0  0  0  0  0  0  0  0  0  0  0
   -7.1830   -1.9010    0.5010 H   0  0  0  0  0  0  0  0  0  0  0  0
   -2.3210    0.4550    0.5620 H   0  0  0  0  0  0  0  0  0  0  0  0
   -1.5960   -0.2280   -2.1940 H   0  0  0  0  0  0  0  0  0  0  0  0
   -1.8230    2.2770   -2.1440 H   0  0  0  0  0  0  0  0  0  0  0  0
   -0.5880    2.3260   -0.8630 H   0  0  0  0  0  0  0  0  0  0  0  0
    0.9770    1.1030   -2.4260 H   0  0  0  0  0  0  0  0  0  0  0  0
    0.3950    0.9890   -4.8060 H   0  0  0  0  0  0  0  0  0  0  0  0
   -0.8370    0.1250   -3.8550 H   0  0  0  0  0  0  0  0  0  0  0  0
   -1.1800    1.7540   -4.4840 H   0  0  0  0  0  0  0  0  0  0  0  0
    1.0580    3.5680   -2.1660 H   0  0  0  0  0  0  0  0  0  0  0  0
    1.4430    3.0890   -3.8360 H   0  0  0  0  0  0  0  0  0  0  0  0
   -0.1650    3.7430   -3.4470 H   0  0  0  0  0  0  0  0  0  0  0  0
    0.9500   -0.5220   -2.2900 H   0  0  0  0  0  0  0  0  0  0  0  0
    2.0970   -1.0860    0.3470 H   0  0  0  0  0  0  0  0  0  0  0  0
    0.7150   -3.1040   -0.2430 H   0  0  0  0  0  0  0  0  0  0  0  0
    1.6920   -3.2950   -1.7180 H   0  0  0  0  0  0  0  0  0  0  0  0
    3.7580   -3.3870   -0.2230 H   0  0  0  0  0  0  0  0  0  0  0  0
    1.5290   -5.4460   -0.2370 H   0  0  0  0  0  0  0  0  0  0  0  0
    3.2370   -5.6200   -0.7640 H   0  0  0  0  0  0  0  0  0  0  0  0
    2.3330   -6.5310    1.6970 H   0  0  0  0  0  0  0  0  0  0  0  0
    4.0080   -5.9640    1.4320 H   0  0  0  0  0  0  0  0  0  0  0  0
    2.6280   -4.6030    3.2540 H   0  0  0  0  0  0  0  0  0  0  0  0
    4.1180   -1.7120   -0.9460 H   0  0  0  0  0  0  0  0  0  0  0  0
    2.4720   -1.1870   -3.2790 H   0  0  0  0  0  0  0  0  0  0  0  0
    3.8660    0.4320    0.5700 H   0  0  0  0  0  0  0  0  0  0  0  0
    5.0460    2.5610   -0.8630 H   0  0  0  0  0  0  0  0  0  0  0  0
    3.3130    2.9130   -0.6610 H   0  0  0  0  0  0  0  0  0  0  0  0
    6.5220    2.4420    1.0600 H   0  0  0  0  0  0  0  0  0  0  0  0
    6.9420    3.1810    3.3720 H   0  0  0  0  0  0  0  0  0  0  0  0
    5.0750    3.9720    4.7690 H   0  0  0  0  0  0  0  0  0  0  0  0
    2.7890    4.0250    3.8560 H   0  0  0  0  0  0  0  0  0  0  0  0
    2.3710    3.2920    1.5430 H   0  0  0  0  0  0  0  0  0  0  0  0
 26 27  2  0  0  0  0
  4  8  2  0  0  0  0
  2  8  1  0  0  0  0
  4  7  1  0  0  0  0
  1  2  1  0  0  0  0
  1  9  1  0  0  0  0
  2  6  2  0  0  0  0
  5 10  2  0  0  0  0
 25 26  1  0  0  0  0
 22 26  1  0  0  0  0
 24 25  1  0  0  0  0
  3  7  2  0  0  0  0
  5  9  1  0  0  0  0
  5 11  1  0  0  0  0
  3  6  1  0  0  0  0
 21 22  1  0  0  0  0
 22 23  1  0  0  0  0
 16 18  1  0  0  0  0
 23 24  1  0  0  0  0
 20 21  1  0  0  0  0
 11 12  1  0  0  0  0
 12 13  1  0  0  0  0
 12 15  1  0  0  0  0
 13 19  1  0  0  0  0
 19 20  1  0  0  0  0
 15 16  1  0  0  0  0
 16 17  1  0  0  0  0
 13 14  2  0  0  0  0
 20 28  1  0  0  0  0
 28 29  1  0  0  0  0
 28 30  1  0  0  0  0
 30 31  2  0  0  0  0
 30 32  1  0  0  0  0
 32 33  1  0  0  0  0
 33 34  1  0  0  0  0
 38 39  2  0  0  0  0
 34 39  1  0  0  0  0
 37 38  1  0  0  0  0
 34 35  2  0  0  0  0
 36 37  2  0  0  0  0
 35 36  1  0  0  0  0
 12 48  1  0  0  0  0
 20 59  1  0  0  0  0
 21 60  1  0  0  0  0
 21 61  1  0  0  0  0
 22 62  1  0  0  0  0
 24 65  1  0  0  0  0
 24 66  1  0  0  0  0
 23 63  1  0  0  0  0
 23 64  1  0  0  0  0
 28 68  1  0  0  0  0
 33 71  1  0  0  0  0
 33 72  1  0  0  0  0
 35 73  1  0  0  0  0
 36 74  1  0  0  0  0
 37 75  1  0  0  0  0
 38 76  1  0  0  0  0
 39 77  1  0  0  0  0
 15 49  1  0  0  0  0
 15 50  1  0  0  0  0
 16 51  1  0  0  0  0
 17 52  1  0  0  0  0
 17 53  1  0  0  0  0
 17 54  1  0  0  0  0
 18 55  1  0  0  0  0
 18 56  1  0  0  0  0
 18 57  1  0  0  0  0
  1 40  1  0  0  0  0
  1 41  1  0  0  0  0
  6 44  1  0  0  0  0
  3 42  1  0  0  0  0
  7 45  1  0  0  0  0
  4 43  1  0  0  0  0
  8 46  1  0  0  0  0
 11 47  1  0  0  0  0
 19 58  1  0  0  0  0
 25 67  1  0  0  0  0
 32 70  1  0  0  0  0
 29 69  1  0  0  0  0
M  END
> <OPENEYE_ISO_SMILES>
CC(C)C[C@@H](C(=O)N[C@@H](C[C@@H]1CCNC1=O)[C@H](C(=O)NCc2ccccc2)O)NC(=O)OCc3ccccc3

> <OPENEYE_INCHI>
InChI=1S/C29H38N4O6/c1-19(2)15-24(33-29(38)39-18-21-11-7-4-8-12-21)27(36)32-23(16-22-13-14-30-26(22)35)25(34)28(37)31-17-20-9-5-3-6-10-20/h3-12,19,22-25,34H,13-18H2,1-2H3,(H,30,35)(H,31,37)(H,32,36)(H,33,38)/t22-,23-,24-,25+/m0/s1

> <OPENEYE_INCHIKEY>
MPMTWRHFCLPCDF-OJJQZRKESA-N

> <FORMULA>
C29H38N4O6

$$$$
