@<TRIPOS>MOLECULE
/home/pku/3cl/gett_pdb/5RV9/5RV9_mol2/ligand/5RV9_EKZ.pdb
 25 25 0 0 0
SMALL
GASTEIGER

@<TRIPOS>ATOM
      1  CAA      -39.4720   -6.8870    0.9860 C.3   201  EKZ201     -0.0560
      2  CAL      -38.9360   -6.2670    2.2680 C.3   201  EKZ201     -0.0125
      3  CAB      -38.7520   -4.7770    2.0210 C.3   201  EKZ201     -0.0560
      4  CAC      -37.5890   -6.8910    2.6080 C.3   201  EKZ201     -0.0560
      5  CAK      -39.8870   -6.4740    3.4530 C.ar  201  EKZ201     -0.0377
      6  CAH      -39.8390   -5.6030    4.5100 C.ar  201  EKZ201     -0.0128
      7  CAJ      -40.6630   -5.7720    5.5940 C.ar  201  EKZ201      0.1591
      8  OAE      -40.5970   -4.8680    6.6410 O.3   201  EKZ201     -0.5033
      9  CAI      -41.5540   -6.8200    5.6520 C.ar  201  EKZ201      0.1662
     10  OAD      -42.4050   -6.9710    6.7670 O.3   201  EKZ201     -0.5029
     11  CAF      -41.6030   -7.6960    4.5880 C.ar  201  EKZ201      0.0311
     12  CAG      -40.7730   -7.5290    3.4970 C.ar  201  EKZ201     -0.0465
     13  H1       -38.8950   -6.6500    0.2430 H     201  EKZ201      0.0238
     14  H2       -39.4960   -7.8530    1.0760 H     201  EKZ201      0.0238
     15  H3       -40.3680   -6.5560    0.8170 H     201  EKZ201      0.0238
     16  H4       -38.6650   -4.6230    1.0680 H     201  EKZ201      0.0238
     17  H5       -37.9400   -4.4850    2.4530 H     201  EKZ201      0.0238
     18  H6       -39.5100   -4.2710    2.3500 H     201  EKZ201      0.0238
     19  H7       -37.4870   -6.9140    3.5700 H     201  EKZ201      0.0238
     20  H8       -36.8750   -6.3740    2.2050 H     201  EKZ201      0.0238
     21  H9       -37.5590   -7.7970    2.2640 H     201  EKZ201      0.0238
     22  H10      -39.2760   -4.8680    4.4760 H     201  EKZ201      0.0658
     23  H11      -40.0280   -5.1360    7.2120 H     201  EKZ201      0.2923
     24  H12      -42.9500   -7.6070    6.6240 H     201  EKZ201      0.2923
     25  H14      -40.7380   -8.1730    2.8250 H     201  EKZ201      0.0628
@<TRIPOS>BOND
     1    13     1    1
     2    15     1    1
     3     1    14    1
     4     1     2    1
     5    16     3    1
     6     3     2    1
     7     3    18    1
     8     3    17    1
     9    20     4    1
    10    21     4    1
    11     2     4    1
    12     2     5    1
    13     4    19    1
    14    25    12    1
    15     5    12   ar
    16     5     6   ar
    17    12    11   ar
    18    22     6    1
    19     6     7   ar
    20    11     9   ar
    21     7     9   ar
    22     7     8    1
    23     9    10    1
    24    24    10    1
    25     8    23    1
