@<TRIPOS>MOLECULE
/home/pku/3cl/gett_pdb/7MB3/7MB3_mol2/ligand/7MB3_YVV.pdb
 89 91 0 0 0
SMALL
GASTEIGER

@<TRIPOS>ATOM
      1  C10       12.9370  -17.7340   -0.1210 C.2   401  YVV401      0.2162
      2  C13       12.6450  -22.6040   -1.1260 C.3   401  YVV401     -0.0075
      3  C15       12.5690  -24.9790   -0.0900 C.2   401  YVV401      0.3074
      4  C20       13.3760  -26.5520    1.5610 C.3   401  YVV401      0.0896
      5  C21       14.7580  -27.2050    1.7330 C.3   401  YVV401     -0.0306
      6  C22       14.2200  -17.9310    1.9000 C.3   401  YVV401      0.0123
      7  C24       19.7710  -24.6520   -6.2750 C.ar  401  YVV401     -0.0617
      8  C26       18.2860  -22.7370   -5.2020 C.ar  401  YVV401     -0.0585
      9  C28       18.5790  -25.0620   -3.9560 C.ar  401  YVV401     -0.0585
     10  C01       18.0360  -19.5000   -2.4350 C.2   401  YVV401      0.2343
     11  C04       16.9490  -21.6720   -2.8090 C.3   401  YVV401      0.1033
     12  C05       17.1040  -23.1900   -2.8670 C.3   401  YVV401     -0.0007
     13  C07       13.5090  -21.3630   -0.8450 C.3   401  YVV401      0.0275
     14  C08       12.8010  -20.0360   -0.8920 C.3   401  YVV401     -0.0231
     15  C09       13.7710  -18.8950   -0.2790 C.3   401  YVV401      0.0386
     16  C14       13.4270  -23.8970   -0.7940 C.3   401  YVV401      0.0498
     17  C18       15.9570  -21.5330   -1.6280 C.2   401  YVV401      0.2339
     18  C23       14.1450  -19.2720    1.1760 C.3   401  YVV401     -0.0262
     19  C25       19.1840  -23.2420   -6.3360 C.ar  401  YVV401     -0.0615
     20  C27       17.9960  -23.6520   -4.0150 C.ar  401  YVV401     -0.0451
     21  C29       19.4730  -25.5600   -5.0890 C.ar  401  YVV401     -0.0615
     22  C30       19.2730  -18.6080   -2.1810 C.3   401  YVV401      0.1033
     23  C32       19.9990  -18.3910   -3.4900 C.3   401  YVV401     -0.0007
     24  C33       24.0930  -16.5120   -2.5260 C.ar  401  YVV401     -0.0617
     25  C34       23.9560  -18.0310   -2.6410 C.ar  401  YVV401     -0.0615
     26  C35       22.5890  -18.6580   -2.9630 C.ar  401  YVV401     -0.0585
     27  C36       21.3830  -17.7470   -3.1660 C.ar  401  YVV401     -0.0451
     28  C37       21.5100  -16.2320   -3.0450 C.ar  401  YVV401     -0.0585
     29  C38       22.8760  -15.6050   -2.7320 C.ar  401  YVV401     -0.0615
     30  C39       19.1820  -16.7570   -0.3950 C.2   401  YVV401      0.2158
     31  C40       18.5550  -15.4010    0.0030 C.3   401  YVV401      0.0474
     32  C42       19.3090  -14.7310    1.1690 C.3   401  YVV401      0.0571
     33  C44       21.1080  -13.6700    0.0670 C.3   401  YVV401      0.1080
     34  C45       22.6430  -13.5340    0.0900 C.1   401  YVV401     -0.0773
     35  C46       23.8200  -13.4270    0.0830 C.1   401  YVV401     -0.1169
     36  N02       18.1540  -20.9600   -2.5490 N.am  401  YVV401     -0.3022
     37  N06       14.5230  -21.4540   -1.9230 N.am  401  YVV401     -0.3106
     38  N11       13.1960  -17.1310    1.2520 N.am  401  YVV401     -0.3151
     39  N31       18.7740  -17.3390   -1.6810 N.am  401  YVV401     -0.3036
     40  O03       16.9630  -18.9880   -2.5360 O.2   401  YVV401     -0.2738
     41  O12       12.1750  -17.3470   -0.9540 O.2   401  YVV401     -0.2755
     42  O16       13.1410  -26.2450    0.2010 O.3   401  YVV401     -0.4649
     43  O17       11.4240  -24.7580    0.1880 O.2   401  YVV401     -0.2508
     44  O19       16.3610  -21.5490   -0.5040 O.2   401  YVV401     -0.2738
     45  O41       19.9640  -17.2880    0.3190 O.2   401  YVV401     -0.2757
     46  O43       20.6900  -14.7030    0.9220 O.3   401  YVV401     -0.3669
     47 H131       11.8370  -22.5680   -0.6260 H     401  YVV401      0.0327
     48 H201       12.7140  -27.1450    1.8630 H     401  YVV401      0.0694
     49 H202       13.3420  -25.7610    2.0670 H     401  YVV401      0.0694
     50 H211       15.0370  -27.5690    0.9130 H     401  YVV401      0.0262
     51 H212       14.7040  -27.8870    2.3760 H     401  YVV401      0.0262
     52 H213       15.3770  -26.5580    2.0150 H     401  YVV401      0.0262
     53 H222       15.0660  -17.5410    1.7860 H     401  YVV401      0.0462
     54 H221       14.0280  -18.0370    2.8130 H     401  YVV401      0.0462
     55 H241       20.3120  -24.9570   -6.9660 H     401  YVV401      0.0618
     56 H261       17.9230  -21.8820   -5.2370 H     401  YVV401      0.0620
     57 H281       18.3910  -25.6150   -3.2330 H     401  YVV401      0.0620
     58 H041       16.6710  -21.3060   -3.6280 H     401  YVV401      0.0598
     59 H052       17.4800  -23.4840   -2.0590 H     401  YVV401      0.0336
     60 H051       16.2540  -23.5740   -2.9750 H     401  YVV401      0.0336
     61 H071       13.8340  -21.3760    0.0360 H     401  YVV401      0.0501
     62 H082       12.0110  -20.0830   -0.3860 H     401  YVV401      0.0290
     63 H081       12.5900  -19.8240   -1.7820 H     401  YVV401      0.0290
     64 H091       14.5430  -18.7500   -0.7930 H     401  YVV401      0.0395
     65 H142       14.1440  -23.6740   -0.2300 H     401  YVV401      0.0381
     66 H141       13.7600  -24.2570   -1.5950 H     401  YVV401      0.0381
     67 H232       14.9770  -19.7060    1.2000 H     401  YVV401      0.0288
     68 H231       13.4800  -19.8150    1.5560 H     401  YVV401      0.0288
     69 H251       19.3720  -22.6910   -7.0600 H     401  YVV401      0.0618
     70 H291       19.8350  -26.4150   -5.0550 H     401  YVV401      0.0618
     71 H301       19.8660  -19.0020   -1.5680 H     401  YVV401      0.0598
     72 H321       20.1240  -19.2130   -3.9270 H     401  YVV401      0.0336
     73 H322       19.5010  -17.8170   -4.0410 H     401  YVV401      0.0336
     74 H331       24.9200  -16.1370   -2.3300 H     401  YVV401      0.0618
     75 H341       24.6990  -18.5750   -2.5170 H     401  YVV401      0.0618
     76 H351       22.5000  -19.5800   -3.0320 H     401  YVV401      0.0620
     77 H371       20.7640  -15.6900   -3.1610 H     401  YVV401      0.0620
     78 H381       22.9640  -14.6820   -2.6670 H     401  YVV401      0.0618
     79 H402       17.6640  -15.5450    0.2630 H     401  YVV401      0.0381
     80 H401       18.5760  -14.8280   -0.7400 H     401  YVV401      0.0381
     81 H422       19.1480  -15.2130    1.9580 H     401  YVV401      0.0565
     82 H421       18.9970  -13.8510    1.2720 H     401  YVV401      0.0565
     83 H442       20.8280  -13.8610   -0.8080 H     401  YVV401      0.0697
     84 H441       20.7230  -12.8620    0.3500 H     401  YVV401      0.0697
     85 H461       24.7300  -13.3470    0.0800 H     401  YVV401      0.1229
     86 H021       18.9160  -21.3660   -2.4640 H     401  YVV401      0.1495
     87 H061       14.2610  -21.4610   -2.7510 H     401  YVV401      0.1490
     88 H111       12.6170  -16.6480    1.6810 H     401  YVV401      0.1487
     89 H311       18.2050  -16.9010   -2.1680 H     401  YVV401      0.1495
@<TRIPOS>BOND
     1    69    19    1
     2    55     7    1
     3    19     7   ar
     4    19     8   ar
     5     7    21   ar
     6    56     8    1
     7     8    20   ar
     8    21    70    1
     9    21     9   ar
    10    73    23    1
    11    20     9   ar
    12    20    12    1
    13     9    57    1
    14    72    23    1
    15    58    11    1
    16    23    27    1
    17    23    22    1
    18    27    28   ar
    19    27    26   ar
    20    77    28    1
    21    28    29   ar
    22    76    26    1
    23    60    12    1
    24    26    25   ar
    25    12    11    1
    26    12    59    1
    27    11    36    1
    28    11    17    1
    29    87    37    1
    30    29    78    1
    31    29    24   ar
    32    25    24   ar
    33    25    75    1
    34    36    86    1
    35    36    10   am
    36    40    10    2
    37    24    74    1
    38    10    22    1
    39    22    39    1
    40    22    71    1
    41    89    39    1
    42    37    17   am
    43    37    13    1
    44    63    14    1
    45    39    30   am
    46    17    44    2
    47    66    16    1
    48     2    13    1
    49     2    16    1
    50     2    47    1
    51    41     1    2
    52    14    13    1
    53    14    62    1
    54    14    15    1
    55    13    61    1
    56    83    33    1
    57    16    65    1
    58    16     3    1
    59    64    15    1
    60    80    31    1
    61    30    31    1
    62    30    45    2
    63    15     1    1
    64    15    18    1
    65     1    38   am
    66     3    43    2
    67     3    42    1
    68    31    79    1
    69    31    32    1
    70    33    34    1
    71    33    84    1
    72    33    46    1
    73    85    35    1
    74    35    34    3
    75    42     4    1
    76    50     5    1
    77    46    32    1
    78    32    82    1
    79    32    81    1
    80    18    67    1
    81    18    68    1
    82    18     6    1
    83    38    88    1
    84    38     6    1
    85     4     5    1
    86     4    48    1
    87     4    49    1
    88     5    52    1
    89     5    51    1
    90    53     6    1
    91     6    54    1
