@<TRIPOS>MOLECULE
/home/pku/3cl/gett_pdb/5RVH/5RVH_mol2/ligand/5RVH_Q3C.pdb
 19 20 0 0 0
SMALL
GASTEIGER

@<TRIPOS>ATOM
      1  O13      -46.4610  -29.2820    1.9930 O.co2 201  Q3C201     -0.5446
      2  C11      -46.5300  -29.2580    3.2370 C.2   201  Q3C201      0.0731
      3  O12      -45.4580  -29.4490    3.8830 O.co2 201  Q3C201     -0.5446
      4  C7       -47.8890  -29.2320    3.9480 C.ar  201  Q3C201      0.0160
      5  C3       -47.9100  -29.1270    5.3120 C.ar  201  Q3C201     -0.0423
      6  C9       -49.1170  -29.3980    3.2690 C.ar  201  Q3C201      0.0371
      7  N5       -50.2740  -29.4730    3.9220 N.ar  201  Q3C201     -0.2543
      8  C2       -50.3150  -29.3590    5.2620 C.ar  201  Q3C201      0.0710
      9  C6       -51.5430  -29.4480    5.9260 C.ar  201  Q3C201     -0.0357
     10  C10      -51.5900  -29.3600    7.3090 C.ar  201  Q3C201     -0.0597
     11  C8       -50.4280  -29.1560    8.0300 C.ar  201  Q3C201     -0.0611
     12  C4       -49.2010  -29.0940    7.3960 C.ar  201  Q3C201     -0.0525
     13  C1       -49.1520  -29.1780    5.9730 C.ar  201  Q3C201      0.0010
     14  H2       -47.1190  -29.0380    5.7930 H     201  Q3C201      0.0631
     15  H3       -49.1130  -29.4970    2.3440 H     201  Q3C201      0.0836
     16  H4       -52.3300  -29.5400    5.4390 H     201  Q3C201      0.0639
     17  H5       -52.4110  -29.3620    7.7450 H     201  Q3C201      0.0618
     18  H6       -50.4690  -29.0880    8.9570 H     201  Q3C201      0.0618
     19  H7       -48.4200  -28.9870    7.8890 H     201  Q3C201      0.0624
@<TRIPOS>UNITY_ATOM_ATTR
3 1
charge -1
@<TRIPOS>BOND
     1     1     2   ar
     2    15     6    1
     3     2     3   ar
     4     2     4    1
     5     6     7   ar
     6     6     4   ar
     7     7     8   ar
     8     4     5   ar
     9     8     9   ar
    10     8    13   ar
    11     5    14    1
    12     5    13   ar
    13    16     9    1
    14     9    10   ar
    15    13    12   ar
    16    10    17    1
    17    10    11   ar
    18    12    19    1
    19    12    11   ar
    20    11    18    1
