WPS
  -OEChem-02242320043D

 15 15  0     0  0  0  0  0  0999 V2000
    1.8920   -0.0380   -0.0010 N   0  0  0  0  0  0  0  0  0  0  0  0
   -2.6920    1.0720   -0.0020 N   0  0  0  0  0  0  0  0  0  0  0  0
   -1.6380    0.6500   -0.0020 C   0  0  0  0  0  0  0  0  0  0  0  0
   -0.3080    0.1180   -0.0020 C   0  0  0  0  0  0  0  0  0  0  0  0
    0.0510   -1.2500    0.0010 C   0  0  0  0  0  0  0  0  0  0  0  0
   -0.9060   -2.4140    0.0040 C   0  0  0  0  0  0  0  0  0  0  0  0
    0.8770    0.8500    0.0000 C   0  0  0  0  0  0  0  0  0  0  0  0
    0.9910    2.2270    0.0030 N   0  0  0  0  0  0  0  0  0  0  0  0
    1.3520   -1.3290   -0.0040 N   0  0  0  0  0  0  0  0  0  0  0  0
    2.8370    0.1810   -0.0030 H   0  0  0  0  0  0  0  0  0  0  0  0
   -1.1370   -2.6970   -1.0230 H   0  0  0  0  0  0  0  0  0  0  0  0
   -0.4480   -3.2590    0.5190 H   0  0  0  0  0  0  0  0  0  0  0  0
   -1.8240   -2.1290    0.5180 H   0  0  0  0  0  0  0  0  0  0  0  0
    0.1940    2.7800    0.0040 H   0  0  0  0  0  0  0  0  0  0  0  0
    1.8680    2.6410    0.0050 H   0  0  0  0  0  0  0  0  0  0  0  0
  2  3  3  0  0  0  0
  3  4  1  0  0  0  0
  4  7  2  0  0  0  0
  4  5  1  0  0  0  0
  7  8  1  0  0  0  0
  1  7  1  0  0  0  0
  5  6  1  0  0  0  0
  5  9  2  0  0  0  0
  1  9  1  0  0  0  0
  1 10  1  0  0  0  0
  6 11  1  0  0  0  0
  6 12  1  0  0  0  0
  6 13  1  0  0  0  0
  8 14  1  0  0  0  0
  8 15  1  0  0  0  0
M  END
> <OPENEYE_ISO_SMILES>
Cc1c(c([nH]n1)N)C#N

> <OPENEYE_INCHI>
InChI=1S/C5H6N4/c1-3-4(2-6)5(7)9-8-3/h1H3,(H3,7,8,9)

> <OPENEYE_INCHIKEY>
CRRHJAMDQMQGKG-UHFFFAOYSA-N

> <FORMULA>
C5H6N4

$$$$
