@<TRIPOS>MOLECULE
/home/pku/3cl/gett_pdb/5SP3/5SP3_mol2/ligand/5SP3_WYJ.pdb
 40 43 0 0 0
SMALL
GASTEIGER

@<TRIPOS>ATOM
      1  C10      -50.9990  -28.9330    4.9200 C.ar  201  WYJ201     -0.0598
      2  C21      -47.2280  -29.0190    0.3590 C.3   201  WYJ201      0.0719
      3  C01      -42.8680  -28.7440    0.2960 C.3   201  WYJ201     -0.0372
      4  C02      -44.3060  -28.8570    0.8340 C.3   201  WYJ201      0.0720
      5  C03      -44.2050  -29.1320    2.3380 C.3   201  WYJ201      0.0396
      6  C05      -45.5550  -29.3640    4.3750 C.ar  201  WYJ201      0.1345
      7  C06      -46.7790  -29.3130    5.0820 C.ar  201  WYJ201      0.0663
      8  C07      -48.2040  -29.1640    4.7830 C.ar  201  WYJ201      0.0123
      9  C08      -48.8520  -29.2000    6.0010 C.ar  201  WYJ201      0.0487
     10  C09      -50.2570  -29.0910    6.0780 C.ar  201  WYJ201     -0.0377
     11  C11      -50.3510  -28.8880    3.6810 C.ar  201  WYJ201     -0.0611
     12  C12      -48.9610  -29.0030    3.5950 C.ar  201  WYJ201     -0.0518
     13  C14      -46.6920  -29.4280    6.4470 C.ar  201  WYJ201      0.1442
     14  C16      -44.3740  -29.6180    6.3350 C.ar  201  WYJ201      0.1204
     15  C18      -46.1710  -30.3760    2.1950 C.3   201  WYJ201      0.0421
     16  C19      -46.2260  -30.1580    0.6700 C.3   201  WYJ201      0.0977
     17  N04      -45.5300  -29.2740    2.9360 N.pl3 201  WYJ201     -0.3096
     18  N13      -47.9280  -29.3630    6.9740 N.ar  201  WYJ201     -0.3389
     19  N15      -45.4870  -29.5840    7.0310 N.ar  201  WYJ201     -0.2178
     20  N17      -44.3970  -29.5130    5.0140 N.ar  201  WYJ201     -0.2200
     21  O20      -44.9770  -29.8580    0.1420 O.3   201  WYJ201     -0.3683
     22  O22      -46.9830  -28.5120   -0.9250 O.3   201  WYJ201     -0.3924
     23 H101      -51.9250  -28.8550    4.9690 H     201  WYJ201      0.0618
     24 H211      -48.1330  -29.3680    0.4040 H     201  WYJ201      0.0583
     25 H212      -47.1210  -28.3110    1.0110 H     201  WYJ201      0.0583
     26 H012      -42.5180  -29.6330    0.1310 H     201  WYJ201      0.0255
     27 H013      -42.3150  -28.2950    0.9540 H     201  WYJ201      0.0255
     28 H011      -42.8740  -28.2360   -0.5270 H     201  WYJ201      0.0255
     29 H021      -44.7720  -28.0170    0.7020 H     201  WYJ201      0.0609
     30 H032      -43.7020  -29.9520    2.4820 H     201  WYJ201      0.0489
     31 H031      -43.7410  -28.3940    2.7670 H     201  WYJ201      0.0489
     32 H091      -50.6770  -29.1170    6.9050 H     201  WYJ201      0.0638
     33 H111      -50.8530  -28.7850    2.9090 H     201  WYJ201      0.0618
     34 H121      -48.5460  -28.9730    2.7550 H     201  WYJ201      0.0624
     35 H161      -43.5660  -29.7240    6.7790 H     201  WYJ201      0.1048
     36 H182      -45.6770  -31.1930    2.3740 H     201  WYJ201      0.0490
     37 H181      -47.0740  -30.4880    2.5250 H     201  WYJ201      0.0490
     38 H191      -46.5390  -30.9810    0.2540 H     201  WYJ201      0.0635
     39 H131      -48.1040  -29.4120    7.8060 H     201  WYJ201      0.1673
     40 H221      -47.6770  -28.1080   -1.2090 H     201  WYJ201      0.2095
@<TRIPOS>BOND
     1    40    22    1
     2    22     2    1
     3    28     3    1
     4    26     3    1
     5    21    16    1
     6    21     4    1
     7    38    16    1
     8     3     4    1
     9     3    27    1
    10     2    24    1
    11     2    16    1
    12     2    25    1
    13    16    15    1
    14    29     4    1
    15     4     5    1
    16    15    36    1
    17    15    37    1
    18    15    17    1
    19     5    30    1
    20     5    31    1
    21     5    17    1
    22    34    12    1
    23    33    11    1
    24    17     6    1
    25    12    11   ar
    26    12     8   ar
    27    11     1   ar
    28     6    20   ar
    29     6     7   ar
    30     8     7   ar
    31     8     9   ar
    32     1    23    1
    33     1    10   ar
    34    20    14   ar
    35     7    13   ar
    36     9    10   ar
    37     9    18   ar
    38    10    32    1
    39    14    35    1
    40    14    19   ar
    41    13    18   ar
    42    13    19   ar
    43    18    39    1
