@<TRIPOS>MOLECULE
/home/pku/3cl/gett_pdb/5RUP/5RUP_mol2/ligand/5RUP_04R.pdb
 27 28 0 0 0
SMALL
GASTEIGER

@<TRIPOS>ATOM
      1  F1       -42.1270  -34.7540   -3.5650 F     201  04R201     -0.1644
      2  C2       -42.7250  -33.5760   -3.5730 C.3   201  04R201      0.4362
      3  F3       -43.6070  -33.5350   -4.5710 F     201  04R201     -0.1644
      4  F4       -41.8300  -32.5810   -3.8360 F     201  04R201     -0.1644
      5  C5       -43.4540  -33.3310   -2.2810 C.ar  201  04R201      0.1686
      6  N6       -43.1610  -32.4490   -1.4420 N.ar  201  04R201     -0.1663
      7  N        -43.9420  -32.4400   -0.4270 N.ar  201  04R201     -0.2612
      8  C8       -44.8590  -33.3440   -0.6030 C.ar  201  04R201      0.0434
      9  C9       -44.5890  -33.9950   -1.8000 C.ar  201  04R201      0.0052
     10  C10      -45.4130  -35.1360   -2.3740 C.3   201  04R201     -0.0239
     11  C11      -46.4500  -35.5970   -1.3470 C.3   201  04R201     -0.0486
     12  C12      -47.0960  -34.4580   -0.5660 C.3   201  04R201     -0.0473
     13  C13      -46.0370  -33.7350    0.2900 C.3   201  04R201     -0.0104
     14  CA       -43.8460  -31.5200    0.7040 C.3   201  04R201      0.0902
     15  C        -43.3250  -32.1890    1.9560 C.2   201  04R201      0.1089
     16  O        -43.2920  -33.4350    1.9830 O.co2 201  04R201     -0.8463
     17  H10      -44.8260  -35.8770   -2.5920 H     201  04R201      0.0314
     18 H10A      -45.8680  -34.8320   -3.1750 H     201  04R201      0.0314
     19  H11      -46.0150  -36.1940   -0.7180 H     201  04R201      0.0269
     20 H11A      -47.1470  -36.0850   -1.8120 H     201  04R201      0.0269
     21  H12      -47.4440  -33.8280   -1.2090 H     201  04R201      0.0269
     22 H12A      -47.7590  -34.8390    0.0310 H     201  04R201      0.0269
     23  H13      -45.7280  -34.3210    0.9830 H     201  04R201      0.0328
     24  OXT      -42.8960  -31.5100    2.9140 O.co2 201  04R201     -0.3071
     25 H13A      -46.4390  -32.9140    0.6160 H     201  04R201      0.0328
     26  H14      -43.2490  -30.7930    0.4660 H     201  04R201      0.0579
     27 H14A      -44.7260  -31.1560    0.8870 H     201  04R201      0.0579
@<TRIPOS>UNITY_ATOM_ATTR
16 1
charge -1
@<TRIPOS>BOND
     1     3     2    1
     2     4     2    1
     3     2     1    1
     4     2     5    1
     5    18    10    1
     6    17    10    1
     7    10     9    1
     8    10    11    1
     9     5     9   ar
    10     5     6   ar
    11    20    11    1
    12     9     8   ar
    13     6     7   ar
    14    11    19    1
    15    11    12    1
    16    21    12    1
    17     8     7   ar
    18     8    13    1
    19    12    22    1
    20    12    13    1
    21     7    14    1
    22    13    25    1
    23    13    23    1
    24    26    14    1
    25    14    27    1
    26    14    15    1
    27    15    16   ar
    28    15    24   ar
