@<TRIPOS>MOLECULE
/home/pku/3cl/gett_pdb/7S3S/7S3S_mol2/ligand/7S3S_860.pdb
 21 23 0 0 0
SMALL
GASTEIGER

@<TRIPOS>ATOM
      1  C1        11.0640   -1.0840   22.8290 C.ar  401  860401     -0.0122
      2  C10        5.3440    0.9600   19.2190 C.ar  401  860401      0.0204
      3  C11        5.7680    0.7790   17.8880 C.ar  401  860401      0.0989
      4  C13        7.4860   -0.5950   18.5200 C.ar  401  860401      0.1154
      5  C14        5.6470    0.4810   21.5970 C.ar  401  860401      0.0014
      6  C15        4.5650    1.2720   21.8790 C.ar  401  860401      0.0000
      7  C16        3.8540    1.9170   20.8480 C.ar  401  860401      0.0001
      8  C17        4.2350    1.7690   19.5420 C.ar  401  860401      0.0016
      9  C19       12.7040    0.2900   23.9760 C.ar  401  860401      0.0006
     10  C2         9.6340   -1.4610   22.5700 C.3   401  860401      0.1135
     11  C20       11.3780   -0.0650   23.7480 C.ar  401  860401     -0.0037
     12  C3         8.9780   -0.6040   21.4900 C.2   401  860401      0.2500
     13  C4        12.0870   -1.7220   22.1480 C.ar  401  860401      0.0076
     14  C5        13.4020   -1.3600   22.3830 C.ar  401  860401      0.0574
     15  C7        13.7260   -0.3570   23.2830 C.ar  401  860401      0.0114
     16  C8         7.1720   -0.5010   19.8550 C.ar  401  860401      0.0925
     17  C9         6.0670    0.3030   20.2550 C.ar  401  860401      0.0184
     18  N12        6.7910    0.0370   17.5470 N.ar  401  860401     -0.2410
     19  N6         7.9040   -1.1450   20.8580 N.am  401  860401     -0.1773
     20  O18        9.4200    0.5080   21.2300 O.2   401  860401     -0.2726
     21 CL21       14.6660   -2.2000   21.5000 Cl    401  860401     -0.0823
@<TRIPOS>BOND
     1    18     3   ar
     2    18     4   ar
     3     3     2   ar
     4     4    16   ar
     5     2     8   ar
     6     2    17   ar
     7     8     7   ar
     8    16    17   ar
     9    16    19    1
    10    17     5   ar
    11     7     6   ar
    12    19    12   am
    13    20    12    2
    14    12    10    1
    15    21    14    1
    16     5     6   ar
    17    13    14   ar
    18    13     1   ar
    19    14    15   ar
    20    10     1    1
    21     1    11   ar
    22    15     9   ar
    23    11     9   ar
