@<TRIPOS>MOLECULE
/home/pku/3cl/gett_pdb/7K1L/7K1L_mol2/ligand/7K1L_UVC.pdb
 21 23 0 0 0
SMALL
GASTEIGER

@<TRIPOS>ATOM
      1  N1       -92.5860   20.4390  -25.9770 N.ar  401  UVC401      0.0000
      2  C2       -91.2470   20.4170  -26.0640 C.ar  401  UVC401      0.0000
      3  N3       -90.4990   19.8900  -25.0830 N.ar  401  UVC401      0.0000
      4  C4       -91.0680   19.3670  -23.9890 C.ar  401  UVC401      0.0000
      5  C5       -92.4510   19.3730  -23.8710 C.ar  401  UVC401      0.0000
      6  C6       -93.2000   19.9270  -24.9020 C.ar  401  UVC401      0.0000
      7  O2       -90.6840   20.9000  -27.0710 O.2   401  UVC401      0.0000
      8  O4       -90.3570   18.8780  -23.0830 O.2   401  UVC401      0.0000
      9  C1'      -93.4030   21.0170  -27.0700 C.3   401  UVC401      0.0000
     10  C2'      -93.5580   20.0400  -28.2410 C.3   401  UVC401      0.0000
     11  O2'      -93.5900   20.7630  -29.4610 O.3   401  UVC401      0.0000
     12  C3'      -94.9360   19.4430  -27.9810 C.3   401  UVC401      0.0000
     13  C4'      -95.6880   20.6120  -27.3670 C.3   401  UVC401      0.0000
     14  O3'      -95.5370   18.9790  -29.1780 O.3   401  UVC401      0.0000
     15  O4'      -94.6900   21.2840  -26.5600 O.3   401  UVC401      0.0000
     16  C5'      -96.8770   20.2620  -26.5100 C.3   401  UVC401      0.0000
     17  O5'      -96.4800   19.6040  -25.3160 O.3   401  UVC401      0.0000
     18  V        -94.9050   20.0100  -30.7730 V     401  UVC401      0.0000
     19  O1V      -96.2710   19.1830  -32.1450 O.3   401  UVC401      0.0000
     20  O2V      -93.3400   19.2650  -31.9700 O.3   401  UVC401      0.0000
     21  O3V      -95.7660   21.9050  -31.0850 O.3   401  UVC401      0.0000
@<TRIPOS>BOND
     1    19    18    1
     2    20    18    1
     3    21    18    1
     4    18    11    1
     5    18    14    1
     6    11    10    1
     7    14    12    1
     8    10    12    1
     9    10     9    1
    10    12    13    1
    11    13    15    1
    12    13    16    1
    13     7     2    2
    14     9    15    1
    15     9     1    1
    16    16    17    1
    17     2     1   ar
    18     2     3   ar
    19     1     6   ar
    20     3     4   ar
    21     6     5   ar
    22     4     5   ar
    23     4     8    2
