@<TRIPOS>MOLECULE
/home/pku/3cl/gett_pdb/7WYP/7WYP_mol2/ligand/7WYP_G7O.pdb
 18 20 0 0 0
SMALL
GASTEIGER

@<TRIPOS>ATOM
      1  C01      -22.0450    3.1250   23.7580 C.3   401  G7O401      0.0101
      2  C02      -21.7900    4.4090   24.0070 C.3   401  G7O401      0.0853
      3  C03      -21.5430    4.6010   25.5070 C.2   401  G7O401      0.2259
      4  C06      -21.9480    5.5970   27.6980 C.3   401  G7O401      0.1460
      5  C07      -23.0080    4.7600   28.4450 C.ar  401  G7O401      0.1083
      6  C09      -24.0170    3.5310   30.1430 C.ar  401  G7O401      0.0875
      7  C10      -24.0760    2.9080   31.4240 C.ar  401  G7O401      0.0196
      8  C11      -25.2270    2.2330   31.8080 C.ar  401  G7O401      0.0016
      9  C12      -26.3220    2.1740   30.9280 C.ar  401  G7O401      0.0006
     10  C13      -26.2720    2.7820   29.6480 C.ar  401  G7O401      0.0080
     11  C14      -25.1030    3.4630   29.2650 C.ar  401  G7O401      0.0482
     12  C16      -23.3200    6.4240   25.6830 C.3   401  G7O401      0.0758
     13  C17      -23.7260    7.2790   24.6620 C.3   401  G7O401      0.0215
     14  C18      -24.5920    6.9890   25.7210 C.3   401  G7O401      0.0215
     15  N05      -22.2970    5.5690   26.2780 N.am  401  G7O401     -0.2751
     16  N08      -22.9030    4.2440   29.6730 N.ar  401  G7O401     -0.2410
     17  O04      -20.7280    3.9650   26.1010 O.2   401  G7O401     -0.2749
     18  S15      -24.5650    4.3270   27.8730 S.2   401  G7O401     -0.0691
@<TRIPOS>BOND
     1     1     2    1
     2     2     3    1
     3    13    12    1
     4    13    14    1
     5     3    17    2
     6     3    15   am
     7    12    14    1
     8    12    15    1
     9    15     4    1
    10     4     5    1
    11    18     5   ar
    12    18    11   ar
    13     5    16   ar
    14    11    10   ar
    15    11     6   ar
    16    10     9   ar
    17    16     6   ar
    18     6     7   ar
    19     9     8   ar
    20     7     8   ar
