@<TRIPOS>MOLECULE
/home/pku/3cl/gett_pdb/7ZQW/7ZQW_mol2/ligand/7ZQW_XNV.pdb
 38 40 0 0 0
SMALL
GASTEIGER

@<TRIPOS>ATOM
      1  C01       10.9360   20.8910   17.9670 C.3   401  XNV401      0.0513
      2  C02       11.4160   20.6920   16.5820 C.3   401  XNV401      0.2086
      3  O03       11.9530   19.3510   16.4420 O.3   401  XNV401     -0.4485
      4  C04       11.0740   18.3760   16.2540 C.2   401  XNV401      0.3170
      5  C05       10.9500   18.0180   14.8090 C.3   401  XNV401      0.1113
      6  C06       12.2340   17.5450   14.1550 C.3   401  XNV401      0.0333
      7  C07       12.1740   17.7450   12.6510 C.3   401  XNV401      0.0964
      8  N08       13.5380   17.8780   12.1590 N.am  401  XNV401     -0.2056
      9  C09       13.9960   19.0500   11.7330 C.2   401  XNV401      0.2631
     10  C10       15.5030   19.1910   11.5880 C.3   401  XNV401      0.1791
     11  N11       15.7260   20.0980   10.4470 N.ar  401  XNV401     -0.2854
     12  C12       15.3590   19.6440    9.1660 C.ar  401  XNV401      0.2766
     13  C13       15.5290   20.5530    8.1230 C.ar  401  XNV401      0.1297
     14  N14       15.2040   20.1540    6.8080 N.am  401  XNV401     -0.1692
     15  C15       16.0250   19.8650    5.7730 C.2   401  XNV401      0.2902
     16  C16       15.3150   19.6960    4.4910 C.ar  401  XNV401      0.1777
     17  N17       14.1450   19.1090    4.4470 N.ar  401  XNV401     -0.0726
     18  O18       13.7610   19.1280    3.0980 O.2   401  XNV401     -0.3576
     19  C19       14.7200   19.7530    2.3830 C.ar  401  XNV401      0.1550
     20  C20       14.4660   19.8910    0.9290 C.3   401  XNV401      0.0754
     21  C21       15.7100   20.1250    3.2180 C.ar  401  XNV401      0.0627
     22  O22       17.2420   19.7380    5.8590 O.2   401  XNV401     -0.2662
     23  C23       15.9870   21.8450    8.3620 C.ar  401  XNV401      0.0230
     24  C24       16.3070   22.2390    9.6550 C.ar  401  XNV401      0.0202
     25  C25       16.1500   21.3740   10.6670 C.ar  401  XNV401      0.0788
     26  O26       14.9480   18.4960    9.0430 O.2   401  XNV401     -0.2655
     27  C27       16.1450   19.6130   12.9090 C.3   401  XNV401      0.1091
     28  C28       17.4790   19.0380   13.0260 C.1   401  XNV401     -0.0754
     29  C29       18.5760   18.6260   13.1000 C.1   401  XNV401     -0.0141
     30  O30       13.2550   19.9790   11.4160 O.2   401  XNV401     -0.2713
     31  C31       11.4200   16.6610   11.8770 C.3   401  XNV401      0.0309
     32  C32       11.0930   17.1420   10.4670 C.3   401  XNV401      0.0817
     33  C33       10.0660   18.2600   10.3980 C.3   401  XNV401      0.0326
     34  C34        9.4150   18.0850    9.0420 C.3   401  XNV401      0.1156
     35  N35        9.5850   16.6590    8.7890 N.am  401  XNV401     -0.2054
     36  C36       10.5100   16.0880    9.5490 C.2   401  XNV401      0.2410
     37  O37       10.8420   14.8870    9.5100 O.2   401  XNV401     -0.2734
     38  O38       10.4480   17.8720   17.1440 O.2   401  XNV401     -0.2501
@<TRIPOS>BOND
     1    20    19    1
     2    19    18   ar
     3    19    21   ar
     4    18    17   ar
     5    21    16   ar
     6    17    16   ar
     7    16    15    1
     8    15    22    2
     9    15    14   am
    10    14    13    1
    11    13    23   ar
    12    13    12   ar
    13    23    24   ar
    14    35    34    1
    15    35    36   am
    16    34    33    1
    17    26    12    2
    18    12    11   ar
    19    37    36    2
    20    36    32    1
    21    24    25   ar
    22    33    32    1
    23    11    25   ar
    24    11    10    1
    25    32    31    1
    26    30     9    2
    27    10     9    1
    28    10    27    1
    29     9     8   am
    30    31     7    1
    31     8     7    1
    32     7     6    1
    33    27    28    1
    34    28    29    3
    35     6     5    1
    36     5     4    1
    37     4     3    1
    38     4    38    2
    39     3     2    1
    40     2     1    1
