BJ6
  -OEChem-02242320023D

 37 39  0     0  0  0  0  0  0999 V2000
    1.6460    2.7690    0.6500 C   0  0  0  0  0  0  0  0  0  0  0  0
    3.6870    3.2040   -0.5250 C   0  0  0  0  0  0  0  0  0  0  0  0
    2.7410    3.5750    0.4140 C   0  0  0  0  0  0  0  0  0  0  0  0
    0.3380   -0.6740    0.3010 C   0  0  0  0  0  0  0  0  0  0  0  0
    0.3280    0.7020    0.1970 C   0  0  0  0  0  0  0  0  0  0  0  0
    2.5570   -3.5180   -0.7390 C   0  0  0  0  0  0  0  0  0  0  0  0
    1.4560   -2.6940   -0.6320 C   0  0  0  0  0  0  0  0  0  0  0  0
    1.5120   -1.5610    0.1820 C   0  0  0  0  0  0  0  0  0  0  0  0
   -5.4040   -0.0030   -0.2960 C   0  0  0  0  0  0  0  0  0  0  0  0
    2.4560    1.2060   -1.0000 C   0  0  0  0  0  0  0  0  0  0  0  0
    3.7140   -3.2260   -0.0370 C   0  0  0  0  0  0  0  0  0  0  0  0
    3.7760   -2.1050    0.7720 C   0  0  0  0  0  0  0  0  0  0  0  0
    2.6840   -1.2700    0.8840 C   0  0  0  0  0  0  0  0  0  0  0  0
   -3.1840    0.0800    0.8050 C   0  0  0  0  0  0  0  0  0  0  0  0
   -3.9160   -0.0290   -0.5340 C   0  0  0  0  0  0  0  0  0  0  0  0
    1.4980    1.5740   -0.0560 C   0  0  0  0  0  0  0  0  0  0  0  0
    3.5430    2.0230   -1.2310 C   0  0  0  0  0  0  0  0  0  0  0  0
   -1.6960    0.0540    0.5670 C   0  0  0  0  0  0  0  0  0  0  0  0
   -0.9500    1.1010    0.3690 N   0  0  0  0  0  0  0  0  0  0  0  0
   -5.8350    0.0940    0.8280 O   0  0  0  0  0  0  0  0  0  0  0  0
   -6.2510   -0.0870   -1.3340 O   0  0  0  0  0  0  0  0  0  0  0  0
   -0.9380   -1.0500    0.5380 O   0  0  0  0  0  0  0  0  0  0  0  0
    0.9080    3.0590    1.3830 H   0  0  0  0  0  0  0  0  0  0  0  0
    4.5420    3.8380   -0.7060 H   0  0  0  0  0  0  0  0  0  0  0  0
    2.8580    4.4980    0.9620 H   0  0  0  0  0  0  0  0  0  0  0  0
    2.5160   -4.3940   -1.3680 H   0  0  0  0  0  0  0  0  0  0  0  0
    0.5530   -2.9250   -1.1780 H   0  0  0  0  0  0  0  0  0  0  0  0
    2.3470    0.2820   -1.5490 H   0  0  0  0  0  0  0  0  0  0  0  0
    4.5720   -3.8770   -0.1200 H   0  0  0  0  0  0  0  0  0  0  0  0
    4.6820   -1.8840    1.3170 H   0  0  0  0  0  0  0  0  0  0  0  0
    2.7340   -0.3950    1.5150 H   0  0  0  0  0  0  0  0  0  0  0  0
   -3.4570    1.0160    1.2930 H   0  0  0  0  0  0  0  0  0  0  0  0
   -3.4650   -0.7580    1.4420 H   0  0  0  0  0  0  0  0  0  0  0  0
   -3.6430   -0.9650   -1.0220 H   0  0  0  0  0  0  0  0  0  0  0  0
   -3.6350    0.8090   -1.1720 H   0  0  0  0  0  0  0  0  0  0  0  0
    4.2850    1.7390   -1.9630 H   0  0  0  0  0  0  0  0  0  0  0  0
   -7.1960   -0.0660   -1.1330 H   0  0  0  0  0  0  0  0  0  0  0  0
  2 17  2  0  0  0  0
 10 17  1  0  0  0  0
  2  3  1  0  0  0  0
 10 16  2  0  0  0  0
  1  3  2  0  0  0  0
  1 16  1  0  0  0  0
  5 16  1  0  0  0  0
  5 19  1  0  0  0  0
  4  5  2  0  0  0  0
 12 13  2  0  0  0  0
  8 13  1  0  0  0  0
 18 19  2  0  0  0  0
 11 12  1  0  0  0  0
  4  8  1  0  0  0  0
  4 22  1  0  0  0  0
 14 18  1  0  0  0  0
 18 22  1  0  0  0  0
  7  8  2  0  0  0  0
 14 15  1  0  0  0  0
  9 20  2  0  0  0  0
  6 11  2  0  0  0  0
  9 15  1  0  0  0  0
  9 21  1  0  0  0  0
  6  7  1  0  0  0  0
  1 23  1  0  0  0  0
  2 24  1  0  0  0  0
  3 25  1  0  0  0  0
  6 26  1  0  0  0  0
  7 27  1  0  0  0  0
 10 28  1  0  0  0  0
 11 29  1  0  0  0  0
 12 30  1  0  0  0  0
 13 31  1  0  0  0  0
 14 32  1  0  0  0  0
 14 33  1  0  0  0  0
 15 34  1  0  0  0  0
 15 35  1  0  0  0  0
 17 36  1  0  0  0  0
 21 37  1  0  0  0  0
M  END
> <OPENEYE_ISO_SMILES>
c1ccc(cc1)c2c(oc(n2)CCC(=O)O)c3ccccc3

> <OPENEYE_INCHI>
InChI=1S/C18H15NO3/c20-16(21)12-11-15-19-17(13-7-3-1-4-8-13)18(22-15)14-9-5-2-6-10-14/h1-10H,11-12H2,(H,20,21)

> <OPENEYE_INCHIKEY>
OFPXSFXSNFPTHF-UHFFFAOYSA-N

> <FORMULA>
C18H15NO3

$$$$
