@<TRIPOS>MOLECULE
/home/pku/3cl/gett_pdb/7T49/7T49_mol2/ligand/7T49_FV5.pdb
 35 37 0 0 0
SMALL
GASTEIGER

@<TRIPOS>ATOM
      1  C12        7.7840   19.7420   26.3150 C.3   401  FV5401      0.0339
      2  C14        6.5850   20.9230   24.4700 C.2   401  FV5401      0.2453
      3  C16        5.5250   22.5820   25.8350 C.2   401  FV5401      0.0627
      4  C19        9.0690   18.3870   28.0680 C.3   401  FV5401      0.2036
      5  C23       10.2840   25.8160   24.7190 C.3   401  FV5401      0.1705
      6  C24        8.7510   25.9630   24.8980 C.3   401  FV5401      0.0439
      7  C26        7.9740   28.2970   25.4800 C.3   401  FV5401      0.0194
      8  C27        6.9540   29.3750   25.0400 C.3   401  FV5401      0.0954
      9  C31        5.5350   30.7820   21.3630 C.3   401  FV5401      0.1960
     10  C02       11.0370   23.8540   25.8770 C.2   401  FV5401      0.4214
     11  C04       12.1030   21.8480   27.0380 C.3   401  FV5401      0.1761
     12  C05       13.2790   21.5470   27.9850 C.3   401  FV5401      0.0312
     13  C06       14.5910   22.1590   27.5730 C.3   401  FV5401      0.0022
     14  C07       15.1080   21.5200   26.2940 C.3   401  FV5401      0.0001
     15  C08       15.6590   22.0390   28.7060 C.3   401  FV5401      0.0001
     16  C09       10.8440   21.2480   27.6640 C.2   401  FV5401      0.2614
     17  C11        8.8140   19.7920   27.4790 C.3   401  FV5401      0.1287
     18  C13        7.4900   21.1020   25.7140 C.3   401  FV5401      0.0861
     19  C17        6.7050   22.0280   26.6560 C.3   401  FV5401      0.0534
     20  C25        8.7910   27.4770   24.4710 C.3   401  FV5401      0.0097
     21  C33        6.8800   28.2320   22.9020 C.3   401  FV5401      0.0954
     22  C34        8.3680   27.8680   23.0490 C.3   401  FV5401      0.0194
     23  C35       10.3320   27.3770   24.6070 C.3   401  FV5401      0.0439
     24  N03       11.9620   23.3300   26.7880 N.am  401  FV5401     -0.1611
     25  N10       10.0510   20.3780   26.9620 N.am  401  FV5401     -0.2030
     26  N15        5.4900   21.7880   24.6100 N.am  401  FV5401     -0.1826
     27  N28        6.4570   29.4270   23.6430 N.3   401  FV5401     -0.1594
     28  O01       10.3130   23.1810   25.1780 O.2   401  FV5401     -0.2246
     29  O18        6.7550   20.1980   23.5480 O.2   401  FV5401     -0.2730
     30  O20        9.8680   18.5170   29.2360 O.3   401  FV5401     -0.2185
     31  O21       10.5320   21.5630   28.8040 O.2   401  FV5401     -0.2715
     32  O22       10.9710   25.2660   25.8220 O.3   401  FV5401     -0.4373
     33  O30        5.2330   31.6050   23.7370 O.2   401  FV5401     -0.1572
     34  O32        7.4540   31.5740   22.7960 O.2   401  FV5401     -0.1572
     35  S29        6.1920   30.9390   22.9320 S.O2  401  FV5401      0.0457
@<TRIPOS>BOND
     1     9    35    1
     2    34    35    2
     3    21    22    1
     4    21    27    1
     5    35    27    1
     6    35    33    2
     7    22    20    1
     8    29     2    2
     9    27     8    1
    10     2    26    1
    11     2    18    1
    12    20    23    1
    13    20     6    1
    14    20     7    1
    15    23     5    1
    16    26     3    2
    17     5     6    1
    18     5    32    1
    19     8     7    1
    20    28    10    2
    21    18     1    1
    22    18    19    1
    23    32    10    1
    24     3    19    1
    25    10    24   am
    26    14    13    1
    27     1    17    1
    28    24    11    1
    29    25    17    1
    30    25    16   am
    31    11    16    1
    32    11    12    1
    33    17     4    1
    34    13    12    1
    35    13    15    1
    36    16    31    2
    37     4    30    1
