S7O
  -OEChem-02242320043D

 29 30  0     0  0  0  0  0  0999 V2000
   -4.1950   -0.4900   -0.3780 C   0  0  0  0  0  0  0  0  0  0  0  0
   -3.5890    0.5030    0.5800 C   0  0  0  0  0  0  0  0  0  0  0  0
    3.5040   -1.1840   -0.1520 C   0  0  0  0  0  0  0  0  0  0  0  0
    1.1490   -0.6600    0.2820 C   0  0  0  0  0  0  0  0  0  0  0  0
   -1.8830    1.8430   -0.7370 C   0  0  0  0  0  0  0  0  0  0  0  0
   -1.2080    0.0040    0.7120 C   0  0  0  0  0  0  0  0  0  0  0  0
    0.2010    0.3440    0.4330 C   0  0  0  0  0  0  0  0  0  0  0  0
    0.5990    1.6870    0.3180 C   0  0  0  0  0  0  0  0  0  0  0  0
    1.9140    1.9590    0.0590 C   0  0  0  0  0  0  0  0  0  0  0  0
    2.8210    0.9090   -0.0840 C   0  0  0  0  0  0  0  0  0  0  0  0
   -2.1980    0.7620    0.2000 N   0  0  0  0  0  0  0  0  0  0  0  0
    4.1790    0.9150   -0.3430 N   0  0  0  0  0  0  0  0  0  0  0  0
    4.5920   -0.4240   -0.3820 N   0  0  0  0  0  0  0  0  0  0  0  0
    2.4230   -0.3620    0.0300 N   0  3  0  0  0  0  0  0  0  0  0  0
    3.4830   -2.3990   -0.1170 O   0  0  0  0  0  0  0  0  0  0  0  0
   -1.4750   -0.9590    1.4050 O   0  0  0  0  0  0  0  0  0  0  0  0
   -5.4710   -0.8790   -0.2230 O   0  0  0  0  0  0  0  0  0  0  0  0
   -3.5340   -0.9330   -1.2870 O   0  0  0  0  0  0  0  0  0  0  0  0
   -4.1550    1.4350    0.5430 H   0  0  0  0  0  0  0  0  0  0  0  0
   -3.6210    0.0990    1.5910 H   0  0  0  0  0  0  0  0  0  0  0  0
    0.8500   -1.6940    0.3690 H   0  0  0  0  0  0  0  0  0  0  0  0
   -1.7950    2.7830   -0.1910 H   0  0  0  0  0  0  0  0  0  0  0  0
   -0.9410    1.6250   -1.2400 H   0  0  0  0  0  0  0  0  0  0  0  0
   -2.6790    1.9260   -1.4770 H   0  0  0  0  0  0  0  0  0  0  0  0
   -0.1170    2.4870    0.4310 H   0  0  0  0  0  0  0  0  0  0  0  0
    2.2490    2.9820   -0.0360 H   0  0  0  0  0  0  0  0  0  0  0  0
    4.7390    1.6960   -0.4730 H   0  0  0  0  0  0  0  0  0  0  0  0
    5.4930   -0.7440   -0.5440 H   0  0  0  0  0  0  0  0  0  0  0  0
   -5.8150   -1.5180   -0.8620 H   0  0  0  0  0  0  0  0  0  0  0  0
  5 11  1  0  0  0  0
  2 11  1  0  0  0  0
  6 11  1  0  0  0  0
  1  2  1  0  0  0  0
  6 16  2  0  0  0  0
  3 15  2  0  0  0  0
  1 18  2  0  0  0  0
  6  7  1  0  0  0  0
  1 17  1  0  0  0  0
  4  7  2  0  0  0  0
  4 14  1  0  0  0  0
  7  8  1  0  0  0  0
  3 14  1  0  0  0  0
  3 13  1  0  0  0  0
 10 14  2  0  0  0  0
 12 13  1  0  0  0  0
  8  9  2  0  0  0  0
  9 10  1  0  0  0  0
 10 12  1  0  0  0  0
  2 19  1  0  0  0  0
  2 20  1  0  0  0  0
  4 21  1  0  0  0  0
  5 22  1  0  0  0  0
  5 23  1  0  0  0  0
  5 24  1  0  0  0  0
  8 25  1  0  0  0  0
  9 26  1  0  0  0  0
 12 27  1  0  0  0  0
 13 28  1  0  0  0  0
 17 29  1  0  0  0  0
M  CHG  1  14   1
M  END
> <OPENEYE_ISO_SMILES>
CN(CC(=O)O)C(=O)c1ccc2[nH][nH]c(=O)[n+]2c1

> <OPENEYE_INCHI>
InChI=1S/C10H10N4O4/c1-13(5-8(15)16)9(17)6-2-3-7-11-12-10(18)14(7)4-6/h2-4H,5H2,1H3,(H2,12,15,16,18)/p+1

> <OPENEYE_INCHIKEY>
FPESGUDHYYBDOL-UHFFFAOYSA-O

> <FORMULA>
C10H11N4O4+

$$$$
