UVC
  -OEChem-02242320043D

 33 35  0     1  0  0  0  0  0999 V2000
   -0.1750    0.5690   -2.1460 N   0  0  0  0  0  0  0  0  0  0  0  0
    0.0080   -0.6910   -2.5800 C   0  0  0  0  0  0  0  0  0  0  0  0
   -0.4560   -1.0830   -3.7810 N   0  0  0  0  0  0  0  0  0  0  0  0
   -1.1080   -0.2100   -4.5760 C   0  0  0  0  0  0  0  0  0  0  0  0
   -1.3030    1.1200   -4.1330 C   0  0  0  0  0  0  0  0  0  0  0  0
   -0.8310    1.4850   -2.9220 C   0  0  0  0  0  0  0  0  0  0  0  0
    0.5940   -1.4890   -1.8740 O   0  0  0  0  0  0  0  0  0  0  0  0
   -1.5240   -0.5630   -5.6640 O   0  0  0  0  0  0  0  0  0  0  0  0
    0.3370    0.9650   -0.8320 C   0  0  1  0  0  0  0  0  0  0  0  0
   -0.2980    0.0930    0.2650 C   0  0  2  0  0  0  0  0  0  0  0  0
   -0.9140    0.9510    1.2410 O   0  0  0  0  0  0  0  0  0  0  0  0
    0.9010   -0.5760    0.9640 C   0  0  1  0  0  0  0  0  0  0  0  0
    2.0790    0.3370    0.5630 C   0  0  2  0  0  0  0  0  0  0  0  0
    0.7270   -0.5930    2.3690 O   0  0  0  0  0  0  0  0  0  0  0  0
    1.7580    0.7510   -0.7800 O   0  0  0  0  0  0  0  0  0  0  0  0
    3.3880   -0.4490    0.5760 C   0  0  0  0  0  0  0  0  0  0  0  0
    4.4580    0.3980    0.1550 O   0  0  0  0  0  0  0  0  0  0  0  0
   -0.9770   -0.0450    2.7920 V   0  0  0  0  0  0  0  0  0  0  0  0
   -0.9460   -1.0630    4.3230 O   0  0  0  0  0  0  0  0  0  0  0  0
   -2.2240   -0.8540    2.2500 O   0  0  0  0  0  0  0  0  0  0  0  0
   -1.2310    1.4800    3.7870 O   0  0  0  0  0  0  0  0  0  0  0  0
   -0.3180   -1.9960   -4.0770 H   0  0  0  0  0  0  0  0  0  0  0  0
   -1.8230    1.8330   -4.7550 H   0  0  0  0  0  0  0  0  0  0  0  0
   -0.9700    2.4950   -2.5670 H   0  0  0  0  0  0  0  0  0  0  0  0
    0.1160    2.0160   -0.6500 H   0  0  0  0  0  0  0  0  0  0  0  0
   -0.9860   -0.6300   -0.1390 H   0  0  0  0  0  0  0  0  0  0  0  0
    1.0530   -1.5850    0.5860 H   0  0  0  0  0  0  0  0  0  0  0  0
    2.1410    1.1950    1.2240 H   0  0  0  0  0  0  0  0  0  0  0  0
    3.3080   -1.2980   -0.1030 H   0  0  0  0  0  0  0  0  0  0  0  0
    3.5850   -0.8090    1.5860 H   0  0  0  0  0  0  0  0  0  0  0  0
    5.2640   -0.1350    0.1780 H   0  0  0  0  0  0  0  0  0  0  0  0
   -0.8140   -1.9800    4.0470 H   0  0  0  0  0  0  0  0  0  0  0  0
   -1.3000    1.2030    4.7110 H   0  0  0  0  0  0  0  0  0  0  0  0
  1  2  1  0  0  0  0
  1  6  1  0  0  0  0
  1  9  1  0  0  0  0
  2  3  1  0  0  0  0
  2  7  2  0  0  0  0
  3  4  1  0  0  0  0
  3 22  1  0  0  0  0
  4  5  1  0  0  0  0
  4  8  2  0  0  0  0
  5  6  2  0  0  0  0
  5 23  1  0  0  0  0
  6 24  1  0  0  0  0
  9 10  1  0  0  0  0
  9 15  1  0  0  0  0
  9 25  1  0  0  0  0
 10 11  1  0  0  0  0
 10 12  1  0  0  0  0
 10 26  1  0  0  0  0
 11 18  1  0  0  0  0
 12 13  1  0  0  0  0
 12 14  1  0  0  0  0
 12 27  1  0  0  0  0
 13 15  1  0  0  0  0
 13 16  1  0  0  0  0
 13 28  1  0  0  0  0
 14 18  1  0  0  0  0
 16 17  1  0  0  0  0
 16 29  1  0  0  0  0
 16 30  1  0  0  0  0
 17 31  1  0  0  0  0
 18 19  1  0  0  0  0
 18 20  2  0  0  0  0
 18 21  1  0  0  0  0
 19 32  1  0  0  0  0
 21 33  1  0  0  0  0
M  END
> <OPENEYE_ISO_SMILES>
c1cn(c(=O)[nH]c1=O)[C@H]2[C@H]3[C@@H]([C@H](O2)CO)O[V](=O)(O3)(O)O

> <OPENEYE_INCHI>
InChI=1S/C9H10N2O6.2H2O.O.V/c12-3-4-6(14)7(15)8(17-4)11-2-1-5(13)10-9(11)16;;;;/h1-2,4,6-8,12H,3H2,(H,10,13,16);2*1H2;;/q-2;;;;+4/p-2/t4-,6-,7-,8-;;;;/m1..../s1

> <OPENEYE_INCHIKEY>
JSPAHXDHRUTBDP-ODQFIEKDSA-L

> <FORMULA>
C9H12N2O9V

$$$$
