@<TRIPOS>MOLECULE
/home/pku/3cl/gett_pdb/7N44/7N44_mol2/ligand/7N44_06I.pdb
 53 57 0 0 0
SMALL
GASTEIGER

@<TRIPOS>ATOM
      1  C1       -13.9120  -26.7770    1.1570 C.ar  401  06I401      0.2635
      2  C2       -14.7350  -27.5000    0.3180 C.ar  401  06I401      0.0475
      3  N3       -12.4970  -32.1500   -1.9120 N.am  401  06I401     -0.1740
      4  N4       -12.7110  -27.2560    1.5380 N.ar  401  06I401     -0.2819
      5  C5       -18.4300  -27.4050   -0.5930 C.ar  401  06I401      0.0450
      6  C6       -18.6130  -26.0900   -0.9650 C.ar  401  06I401     -0.0016
      7  C7       -17.5420  -25.2050   -0.9110 C.ar  401  06I401      0.1230
      8  C8       -16.9550  -22.8490   -0.7630 C.3   401  06I401      0.1321
      9  C9       -17.5230  -21.5840   -1.4100 C.ar  401  06I401      0.0885
     10  C10      -18.7240  -20.9870   -1.0120 C.ar  401  06I401      0.0127
     11  C11      -19.6400  -21.4360    0.1140 C.3   401  06I401     -0.0315
     12  C12      -17.5660  -19.8550   -2.9680 C.ar  401  06I401      0.0654
     13  C14      -14.2830  -28.7330   -0.1390 C.ar  401  06I401     -0.0429
     14  C15      -13.0410  -29.2100    0.2900 C.ar  401  06I401     -0.0084
     15  C17      -11.6590  -31.3890    0.5560 C.2   401  06I401      0.2378
     16  C18      -12.9260  -30.9820   -1.4420 C.2   401  06I401      0.0204
     17  C19      -11.6820  -32.9310   -1.1920 C.2   401  06I401      0.3292
     18  C20      -12.2670  -28.4390    1.1320 C.ar  401  06I401      0.0179
     19  C22      -10.7980  -25.7610    2.1040 C.ar  401  06I401     -0.0348
     20  C23      -10.1210  -25.0650    3.0980 C.ar  401  06I401     -0.0416
     21  C24      -10.5550  -25.1380    4.4180 C.ar  401  06I401      0.0277
     22  C13      -16.2950  -25.6470   -0.5080 C.ar  401  06I401     -0.0120
     23  C16      -12.5170  -30.5630   -0.1870 C.3   401  06I401      0.1290
     24  C21      -11.9050  -26.4930    2.4640 C.ar  401  06I401      0.0675
     25  C25      -12.2870  -26.5280    3.7990 C.ar  401  06I401      0.0514
     26  C3       -16.1000  -26.9710   -0.1390 C.ar  401  06I401     -0.0079
     27  C4       -17.1780  -27.8510   -0.1780 C.ar  401  06I401     -0.0353
     28  N1       -16.9540  -20.9480   -2.4600 N.ar  401  06I401     -0.2487
     29  N2       -11.2690  -32.5560    0.0300 N.am  401  06I401     -0.2375
     30  N5       -11.6340  -25.8670    4.7520 N.ar  401  06I401     -0.2612
     31  O1       -14.3590  -25.5420    1.5930 O.2   401  06I401     -0.2667
     32  O2       -17.7690  -23.8800   -1.2800 O.3   401  06I401     -0.4858
     33  O3       -11.1780  -31.0760    1.8400 O.2   401  06I401     -0.2739
     34  O4       -11.2600  -34.1500   -1.7350 O.2   401  06I401     -0.2503
     35  S1       -18.9780  -19.6260   -2.0290 S.2   401  06I401     -0.0803
     36 CL1       -19.8130  -28.5210   -0.6940 Cl    401  06I401     -0.0834
     37  H2       -19.4480  -25.7970   -1.2500 H     401  06I401      0.0669
     38  H4       -17.0230  -22.8050    0.2040 H     401  06I401      0.0763
     39  H3       -16.0270  -22.9810   -1.0160 H     401  06I401      0.0763
     40  H7       -20.2820  -20.7350    0.3080 H     401  06I401      0.0283
     41  H5       -19.1120  -21.6190    0.9070 H     401  06I401      0.0283
     42  H6       -20.1110  -22.2400   -0.1540 H     401  06I401      0.0283
     43  H8       -17.2780  -19.3340   -3.6820 H     401  06I401      0.0907
     44  H10      -14.8020  -29.2350   -0.7240 H     401  06I401      0.0629
     45  H12      -13.4950  -30.4520   -1.9520 H     401  06I401      0.0771
     46  H13      -11.4370  -28.7470    1.4150 H     401  06I401      0.0817
     47  H14      -10.5110  -25.7330    1.2200 H     401  06I401      0.0639
     48  H15       -9.3770  -24.5510    2.8820 H     401  06I401      0.0633
     49  H16      -10.0930  -24.6760    5.0790 H     401  06I401      0.0829
     50  H9       -15.5800  -25.0520   -0.4840 H     401  06I401      0.0660
     51  H17      -13.0300  -27.0330    4.0370 H     401  06I401      0.0851
     52  H1       -17.0620  -28.7390    0.0740 H     401  06I401      0.0638
     53  H11      -10.7480  -33.0730    0.4790 H     401  06I401      0.1592
@<TRIPOS>BOND
     1    43    12    1
     2    12    28   ar
     3    12    35   ar
     4    28     9   ar
     5    35    10   ar
     6    45    16    1
     7     3    16    2
     8     3    17    1
     9    34    17    2
    10    16    23    1
    11     9    10   ar
    12     9     8    1
    13    32     7    1
    14    32     8    1
    15    37     6    1
    16    17    29   am
    17    39     8    1
    18    10    11    1
    19     6     7   ar
    20     6     5   ar
    21     7    22   ar
    22     8    38    1
    23    44    13    1
    24    36     5    1
    25     5    27   ar
    26    22    50    1
    27    22    26   ar
    28    23    14    1
    29    23    15    1
    30    27    26   ar
    31    27    52    1
    32    42    11    1
    33    26     2    1
    34    13    14   ar
    35    13     2   ar
    36    29    53    1
    37    29    15   am
    38    11    40    1
    39    11    41    1
    40    14    18   ar
    41     2     1   ar
    42    15    33    2
    43    18    46    1
    44    18     4   ar
    45     1     4   ar
    46     1    31    2
    47    47    19    1
    48     4    24    1
    49    19    24   ar
    50    19    20   ar
    51    24    25   ar
    52    48    20    1
    53    20    21   ar
    54    25    51    1
    55    25    30   ar
    56    21    30   ar
    57    21    49    1
