W5M
  -OEChem-02242320043D

 20 21  0     0  0  0  0  0  0999 V2000
    2.8520    1.6370    0.0000 C   0  0  0  0  0  0  0  0  0  0  0  0
    2.3990   -0.8470    0.0000 C   0  0  0  0  0  0  0  0  0  0  0  0
    0.2300   -0.8990   -0.0000 C   0  0  0  0  0  0  0  0  0  0  0  0
   -1.1430   -1.2010   -0.0000 C   0  0  0  0  0  0  0  0  0  0  0  0
   -1.6050    1.0650   -0.0000 C   0  0  0  0  0  0  0  0  0  0  0  0
    0.6150    0.4510   -0.0000 C   0  0  0  0  0  0  0  0  0  0  0  0
    1.9870    0.4540    0.0000 N   0  0  0  0  0  0  0  0  0  0  0  0
    1.3670   -1.6390   -0.0000 N   0  0  0  0  0  0  0  0  0  0  0  0
   -1.5780   -2.5140    0.0000 N   0  0  0  0  0  0  0  0  0  0  0  0
   -2.0130   -0.1980    0.0000 N   0  0  0  0  0  0  0  0  0  0  0  0
   -2.5540    2.0740    0.0000 N   0  0  0  0  0  0  0  0  0  0  0  0
   -0.3240    1.3930    0.0000 N   0  0  0  0  0  0  0  0  0  0  0  0
    3.0660    1.9310   -1.0270 H   0  0  0  0  0  0  0  0  0  0  0  0
    2.3480    2.4550    0.5140 H   0  0  0  0  0  0  0  0  0  0  0  0
    3.7850    1.4050    0.5140 H   0  0  0  0  0  0  0  0  0  0  0  0
    3.4290   -1.1710   -0.0040 H   0  0  0  0  0  0  0  0  0  0  0  0
   -0.9330   -3.2390    0.0000 H   0  0  0  0  0  0  0  0  0  0  0  0
   -2.5280   -2.7110    0.0000 H   0  0  0  0  0  0  0  0  0  0  0  0
   -3.4980    1.8520    0.0010 H   0  0  0  0  0  0  0  0  0  0  0  0
   -2.2740    3.0030   -0.0000 H   0  0  0  0  0  0  0  0  0  0  0  0
  1  7  1  0  0  0  0
  2  7  1  0  0  0  0
  2  8  2  0  0  0  0
  6  7  1  0  0  0  0
  3  8  1  0  0  0  0
  3  6  2  0  0  0  0
  6 12  1  0  0  0  0
  3  4  1  0  0  0  0
  5 12  2  0  0  0  0
  5 10  1  0  0  0  0
  5 11  1  0  0  0  0
  4 10  2  0  0  0  0
  4  9  1  0  0  0  0
  1 13  1  0  0  0  0
  1 14  1  0  0  0  0
  1 15  1  0  0  0  0
  2 16  1  0  0  0  0
  9 17  1  0  0  0  0
  9 18  1  0  0  0  0
 11 19  1  0  0  0  0
 11 20  1  0  0  0  0
M  END
> <OPENEYE_ISO_SMILES>
Cn1cnc2c1nc(nc2N)N

> <OPENEYE_INCHI>
InChI=1S/C6H8N6/c1-12-2-9-3-4(7)10-6(8)11-5(3)12/h2H,1H3,(H4,7,8,10,11)

> <OPENEYE_INCHIKEY>
NMJOZGVQPPGGFV-UHFFFAOYSA-N

> <FORMULA>
C6H8N6

$$$$
