HLR
  -OEChem-02242320023D

 16 17  0     0  0  0  0  0  0999 V2000
   -0.1340   -0.4080   -0.0030 C   0  0  0  0  0  0  0  0  0  0  0  0
    0.7550   -1.4840   -0.0030 C   0  0  0  0  0  0  0  0  0  0  0  0
    2.1020   -1.2520   -0.0010 C   0  0  0  0  0  0  0  0  0  0  0  0
    2.5920    0.0460    0.0020 C   0  0  0  0  0  0  0  0  0  0  0  0
    1.7300    1.1220    0.0030 C   0  0  0  0  0  0  0  0  0  0  0  0
    0.3570    0.9060   -0.0010 C   0  0  0  0  0  0  0  0  0  0  0  0
   -1.6020   -0.3030    0.0000 C   0  0  0  0  0  0  0  0  0  0  0  0
   -1.8980    0.9670   -0.0020 N   0  0  0  0  0  0  0  0  0  0  0  0
   -2.5020   -1.3590    0.0040 N   0  0  0  0  0  0  0  0  0  0  0  0
   -0.7090    1.7320   -0.0010 O   0  0  0  0  0  0  0  0  0  0  0  0
    0.3800   -2.4960   -0.0050 H   0  0  0  0  0  0  0  0  0  0  0  0
    2.7890   -2.0840   -0.0010 H   0  0  0  0  0  0  0  0  0  0  0  0
    3.6590    0.2150    0.0050 H   0  0  0  0  0  0  0  0  0  0  0  0
    2.1200    2.1290    0.0060 H   0  0  0  0  0  0  0  0  0  0  0  0
   -2.1780   -2.2730    0.0050 H   0  0  0  0  0  0  0  0  0  0  0  0
   -3.4560   -1.1820    0.0060 H   0  0  0  0  0  0  0  0  0  0  0  0
  1  2  1  0  0  0  0
  1  6  2  0  0  0  0
  1  7  1  0  0  0  0
  2  3  2  0  0  0  0
  3  4  1  0  0  0  0
  4  5  2  0  0  0  0
  5  6  1  0  0  0  0
  6 10  1  0  0  0  0
  7  8  2  0  0  0  0
  7  9  1  0  0  0  0
  8 10  1  0  0  0  0
  2 11  1  0  0  0  0
  3 12  1  0  0  0  0
  4 13  1  0  0  0  0
  5 14  1  0  0  0  0
  9 15  1  0  0  0  0
  9 16  1  0  0  0  0
M  END
> <OPENEYE_ISO_SMILES>
c1ccc2c(c1)c(no2)N

> <OPENEYE_INCHI>
InChI=1S/C7H6N2O/c8-7-5-3-1-2-4-6(5)10-9-7/h1-4H,(H2,8,9)

> <OPENEYE_INCHIKEY>
NLMVYUBGWZWUGB-UHFFFAOYSA-N

> <FORMULA>
C7H6N2O

$$$$
