QOR
  -OEChem-02242320033D

 51 54  0     1  0  0  0  0  0999 V2000
    3.1300   -1.1660   -0.6650 C   0  0  0  0  0  0  0  0  0  0  0  0
    2.3760   -0.1810   -0.0210 C   0  0  0  0  0  0  0  0  0  0  0  0
    0.5010   -0.9060   -1.1230 C   0  0  0  0  0  0  0  0  0  0  0  0
   -0.9490   -0.7910   -1.3900 C   0  0  0  0  0  0  0  0  0  0  0  0
   -3.1090    0.2810   -1.0420 C   0  0  1  0  0  0  0  0  0  0  0  0
   -3.8900   -0.6120   -0.1010 C   0  0  0  0  0  0  0  0  0  0  0  0
   -4.1030   -1.9800   -0.1320 C   0  0  0  0  0  0  0  0  0  0  0  0
    5.1300   -0.3630    0.5350 C   0  0  0  0  0  0  0  0  0  0  0  0
   -2.4710    2.7040   -0.8730 C   0  0  0  0  0  0  0  0  0  0  0  0
   -3.5990    1.7130   -0.7410 C   0  0  2  0  0  0  0  0  0  0  0  0
   -4.0630    1.6020    0.7270 C   0  0  0  0  0  0  0  0  0  0  0  0
   -4.4380    0.1480    0.9150 C   0  0  0  0  0  0  0  0  0  0  0  0
   -5.2000   -0.4660    1.9010 C   0  0  0  0  0  0  0  0  0  0  0  0
   -5.4120   -1.8350    1.8660 C   0  0  0  0  0  0  0  0  0  0  0  0
   -4.8630   -2.5900    0.8480 C   0  0  0  0  0  0  0  0  0  0  0  0
    5.5330    0.9240   -0.1920 C   0  0  0  0  0  0  0  0  0  0  0  0
    6.2760    1.8410    0.7840 C   0  0  0  0  0  0  0  0  0  0  0  0
    7.0950   -0.0320    2.0380 C   0  0  0  0  0  0  0  0  0  0  0  0
    6.3860   -1.0240    1.1130 C   0  0  0  0  0  0  0  0  0  0  0  0
    1.2500   -1.8960   -1.7570 C   0  0  0  0  0  0  0  0  0  0  0  0
   -1.6730    0.1660   -0.7770 N   0  0  0  0  0  0  0  0  0  0  0  0
    1.0880   -0.0740   -0.2640 N   0  0  0  0  0  0  0  0  0  0  0  0
    4.4850   -1.2780   -0.4100 N   0  0  0  0  0  0  0  0  0  0  0  0
    2.5440   -1.9990   -1.5180 N   0  0  0  0  0  0  0  0  0  0  0  0
   -1.8370    3.0300    0.1020 O   0  0  0  0  0  0  0  0  0  0  0  0
   -5.7400    0.2780    2.9020 O   0  0  0  0  0  0  0  0  0  0  0  0
    7.4140    1.1540    1.3080 O   0  0  0  0  0  0  0  0  0  0  0  0
   -1.4870   -1.5590   -2.1640 O   0  0  0  0  0  0  0  0  0  0  0  0
   -2.1720    3.2240   -2.0740 O   0  0  0  0  0  0  0  0  0  0  0  0
    2.8510    0.4940    0.6760 H   0  0  0  0  0  0  0  0  0  0  0  0
   -3.3240    0.0180   -2.0780 H   0  0  0  0  0  0  0  0  0  0  0  0
   -3.6750   -2.5720   -0.9270 H   0  0  0  0  0  0  0  0  0  0  0  0
    4.4380   -0.1260    1.3430 H   0  0  0  0  0  0  0  0  0  0  0  0
   -4.4290    1.9840   -1.3930 H   0  0  0  0  0  0  0  0  0  0  0  0
   -3.2510    1.8740    1.4020 H   0  0  0  0  0  0  0  0  0  0  0  0
   -4.9280    2.2420    0.9000 H   0  0  0  0  0  0  0  0  0  0  0  0
   -6.0040   -2.3120    2.6330 H   0  0  0  0  0  0  0  0  0  0  0  0
   -5.0260   -3.6570    0.8180 H   0  0  0  0  0  0  0  0  0  0  0  0
    6.1850    0.6800   -1.0300 H   0  0  0  0  0  0  0  0  0  0  0  0
    4.6400    1.4290   -0.5590 H   0  0  0  0  0  0  0  0  0  0  0  0
    6.6020    2.7400    0.2620 H   0  0  0  0  0  0  0  0  0  0  0  0
    5.6100    2.1170    1.6020 H   0  0  0  0  0  0  0  0  0  0  0  0
    6.4400    0.2200    2.8720 H   0  0  0  0  0  0  0  0  0  0  0  0
    8.0120   -0.4820    2.4190 H   0  0  0  0  0  0  0  0  0  0  0  0
    6.1020   -1.9110    1.6790 H   0  0  0  0  0  0  0  0  0  0  0  0
    7.0550   -1.3070    0.3000 H   0  0  0  0  0  0  0  0  0  0  0  0
    0.7720   -2.5790   -2.4440 H   0  0  0  0  0  0  0  0  0  0  0  0
   -1.2430    0.7790   -0.1610 H   0  0  0  0  0  0  0  0  0  0  0  0
    5.0090   -1.9620   -0.8570 H   0  0  0  0  0  0  0  0  0  0  0  0
   -6.6240    0.6190    2.7070 H   0  0  0  0  0  0  0  0  0  0  0  0
   -1.4410    3.8560   -2.1090 H   0  0  0  0  0  0  0  0  0  0  0  0
  9 25  2  0  0  0  0
 10 11  1  0  0  0  0
 11 12  1  0  0  0  0
 12 13  2  0  0  0  0
 13 26  1  0  0  0  0
 13 14  1  0  0  0  0
 14 15  2  0  0  0  0
  7 15  1  0  0  0  0
  6  7  2  0  0  0  0
  5  6  1  0  0  0  0
  5 21  1  0  0  0  0
  4 21  1  0  0  0  0
  3 22  2  0  0  0  0
  2 22  1  0  0  0  0
  1  2  2  0  0  0  0
  8 23  1  0  0  0  0
  8 16  1  0  0  0  0
 16 17  1  0  0  0  0
 17 27  1  0  0  0  0
 18 27  1  0  0  0  0
 18 19  1  0  0  0  0
  1 23  1  0  0  0  0
  1 24  1  0  0  0  0
 20 24  2  0  0  0  0
  3  4  1  0  0  0  0
  4 28  2  0  0  0  0
  9 10  1  0  0  0  0
  9 29  1  0  0  0  0
  5 10  1  0  0  0  0
  6 12  1  0  0  0  0
  3 20  1  0  0  0  0
  8 19  1  0  0  0  0
  2 30  1  0  0  0  0
  5 31  1  0  0  0  0
  7 32  1  0  0  0  0
  8 33  1  0  0  0  0
 10 34  1  0  0  0  0
 11 35  1  0  0  0  0
 11 36  1  0  0  0  0
 14 37  1  0  0  0  0
 15 38  1  0  0  0  0
 16 39  1  0  0  0  0
 16 40  1  0  0  0  0
 17 41  1  0  0  0  0
 17 42  1  0  0  0  0
 18 43  1  0  0  0  0
 18 44  1  0  0  0  0
 19 45  1  0  0  0  0
 19 46  1  0  0  0  0
 20 47  1  0  0  0  0
 21 48  1  0  0  0  0
 23 49  1  0  0  0  0
 26 50  1  0  0  0  0
 29 51  1  0  0  0  0
M  END
> <OPENEYE_ISO_SMILES>
c1cc2c(c(c1)O)C[C@H]([C@H]2NC(=O)c3cnc(cn3)NC4CCOCC4)C(=O)O

> <OPENEYE_INCHI>
InChI=1S/C20H22N4O5/c25-16-3-1-2-12-13(16)8-14(20(27)28)18(12)24-19(26)15-9-22-17(10-21-15)23-11-4-6-29-7-5-11/h1-3,9-11,14,18,25H,4-8H2,(H,22,23)(H,24,26)(H,27,28)/t14-,18+/m1/s1

> <OPENEYE_INCHIKEY>
QXKJWZYTSHGWOC-KDOFPFPSSA-N

> <FORMULA>
C20H22N4O5

$$$$
