QP9
  -OEChem-02242320033D

 51 54  0     1  0  0  0  0  0999 V2000
    2.5990   -2.3100    0.7110 C   0  0  0  0  0  0  0  0  0  0  0  0
    3.4680   -1.3050    1.4230 C   0  0  1  0  0  0  0  0  0  0  0  0
    4.8920   -1.2920    0.8270 C   0  0  0  0  0  0  0  0  0  0  0  0
    4.8620   -0.2260   -0.2470 C   0  0  0  0  0  0  0  0  0  0  0  0
    5.7290    0.0110   -1.3060 C   0  0  0  0  0  0  0  0  0  0  0  0
    5.4950    1.0650   -2.1750 C   0  0  0  0  0  0  0  0  0  0  0  0
    4.3960    1.8810   -1.9860 C   0  0  0  0  0  0  0  0  0  0  0  0
    3.5340    1.6450   -0.9330 C   0  0  0  0  0  0  0  0  0  0  0  0
    3.7640    0.5930   -0.0620 C   0  0  0  0  0  0  0  0  0  0  0  0
    2.9810    0.1330    1.1490 C   0  0  1  0  0  0  0  0  0  0  0  0
    0.8020    1.2240    1.1470 C   0  0  0  0  0  0  0  0  0  0  0  0
   -0.6460    1.2280    0.8530 C   0  0  0  0  0  0  0  0  0  0  0  0
   -2.5050    0.1630    0.0360 C   0  0  0  0  0  0  0  0  0  0  0  0
   -3.2780    1.2880    0.3400 C   0  0  0  0  0  0  0  0  0  0  0  0
   -5.2600    0.1160   -0.5450 C   0  0  0  0  0  0  0  0  0  0  0  0
   -5.6440   -0.8870    0.5480 C   0  0  0  0  0  0  0  0  0  0  0  0
   -6.3680   -2.0750   -0.0910 C   0  0  0  0  0  0  0  0  0  0  0  0
   -7.2140   -0.7020   -1.8670 C   0  0  0  0  0  0  0  0  0  0  0  0
   -6.5240    0.5410   -1.2990 C   0  0  0  0  0  0  0  0  0  0  0  0
   -1.4160    2.3520    1.1520 C   0  0  0  0  0  0  0  0  0  0  0  0
    1.5460    0.1370    0.8580 N   0  0  0  0  0  0  0  0  0  0  0  0
   -1.2170    0.1590    0.2970 N   0  0  0  0  0  0  0  0  0  0  0  0
   -4.6340    1.2910    0.0650 N   0  0  0  0  0  0  0  0  0  0  0  0
   -2.7090    2.3550    0.8890 N   0  0  0  0  0  0  0  0  0  0  0  0
    2.8220   -2.5910   -0.4430 O   0  0  0  0  0  0  0  0  0  0  0  0
    6.8100   -0.7930   -1.4910 O   0  0  0  0  0  0  0  0  0  0  0  0
   -7.5160   -1.6050   -0.8020 O   0  0  0  0  0  0  0  0  0  0  0  0
    1.3230    2.2010    1.6500 O   0  0  0  0  0  0  0  0  0  0  0  0
    1.5800   -2.8950    1.3590 O   0  0  0  0  0  0  0  0  0  0  0  0
    3.4950   -1.5090    2.4930 H   0  0  0  0  0  0  0  0  0  0  0  0
    5.6210   -1.0340    1.5950 H   0  0  0  0  0  0  0  0  0  0  0  0
    5.1290   -2.2630    0.3910 H   0  0  0  0  0  0  0  0  0  0  0  0
    6.1700    1.2490   -2.9980 H   0  0  0  0  0  0  0  0  0  0  0  0
    4.2120    2.7030   -2.6620 H   0  0  0  0  0  0  0  0  0  0  0  0
    2.6760    2.2850   -0.7870 H   0  0  0  0  0  0  0  0  0  0  0  0
    3.1960    0.7740    2.0040 H   0  0  0  0  0  0  0  0  0  0  0  0
   -2.9670   -0.7030   -0.4150 H   0  0  0  0  0  0  0  0  0  0  0  0
   -4.5610   -0.3510   -1.2400 H   0  0  0  0  0  0  0  0  0  0  0  0
   -4.7450   -1.2370    1.0530 H   0  0  0  0  0  0  0  0  0  0  0  0
   -6.3030   -0.4030    1.2700 H   0  0  0  0  0  0  0  0  0  0  0  0
   -5.6950   -2.5810   -0.7830 H   0  0  0  0  0  0  0  0  0  0  0  0
   -6.6810   -2.7710    0.6870 H   0  0  0  0  0  0  0  0  0  0  0  0
   -8.1360   -0.4090   -2.3680 H   0  0  0  0  0  0  0  0  0  0  0  0
   -6.5510   -1.1910   -2.5820 H   0  0  0  0  0  0  0  0  0  0  0  0
   -7.2010    1.0530   -0.6150 H   0  0  0  0  0  0  0  0  0  0  0  0
   -6.2530    1.2120   -2.1140 H   0  0  0  0  0  0  0  0  0  0  0  0
   -0.9530    3.2200    1.5990 H   0  0  0  0  0  0  0  0  0  0  0  0
    1.1300   -0.6420    0.4570 H   0  0  0  0  0  0  0  0  0  0  0  0
   -5.1700    2.0710    0.2770 H   0  0  0  0  0  0  0  0  0  0  0  0
    6.6390   -1.5570   -2.0580 H   0  0  0  0  0  0  0  0  0  0  0  0
    1.0530   -3.5360    0.8620 H   0  0  0  0  0  0  0  0  0  0  0  0
  1 25  2  0  0  0  0
  2  3  1  0  0  0  0
  3  4  1  0  0  0  0
  4  5  2  0  0  0  0
  5 26  1  0  0  0  0
  5  6  1  0  0  0  0
  6  7  2  0  0  0  0
  7  8  1  0  0  0  0
  8  9  2  0  0  0  0
  9 10  1  0  0  0  0
 10 21  1  0  0  0  0
 11 21  1  0  0  0  0
 12 22  2  0  0  0  0
 13 22  1  0  0  0  0
 13 14  2  0  0  0  0
 15 23  1  0  0  0  0
 15 16  1  0  0  0  0
 16 17  1  0  0  0  0
 17 27  1  0  0  0  0
 18 27  1  0  0  0  0
 18 19  1  0  0  0  0
 14 23  1  0  0  0  0
 14 24  1  0  0  0  0
 20 24  2  0  0  0  0
 11 12  1  0  0  0  0
 11 28  2  0  0  0  0
  1  2  1  0  0  0  0
  1 29  1  0  0  0  0
  2 10  1  0  0  0  0
  4  9  1  0  0  0  0
 12 20  1  0  0  0  0
 15 19  1  0  0  0  0
  2 30  1  0  0  0  0
  3 31  1  0  0  0  0
  3 32  1  0  0  0  0
  6 33  1  0  0  0  0
  7 34  1  0  0  0  0
  8 35  1  0  0  0  0
 10 36  1  0  0  0  0
 13 37  1  0  0  0  0
 15 38  1  0  0  0  0
 16 39  1  0  0  0  0
 16 40  1  0  0  0  0
 17 41  1  0  0  0  0
 17 42  1  0  0  0  0
 18 43  1  0  0  0  0
 18 44  1  0  0  0  0
 19 45  1  0  0  0  0
 19 46  1  0  0  0  0
 20 47  1  0  0  0  0
 21 48  1  0  0  0  0
 23 49  1  0  0  0  0
 26 50  1  0  0  0  0
 29 51  1  0  0  0  0
M  END
> <OPENEYE_ISO_SMILES>
c1cc2c(c(c1)O)C[C@@H]([C@@H]2NC(=O)c3cnc(cn3)NC4CCOCC4)C(=O)O

> <OPENEYE_INCHI>
InChI=1S/C20H22N4O5/c25-16-3-1-2-12-13(16)8-14(20(27)28)18(12)24-19(26)15-9-22-17(10-21-15)23-11-4-6-29-7-5-11/h1-3,9-11,14,18,25H,4-8H2,(H,22,23)(H,24,26)(H,27,28)/t14-,18+/m0/s1

> <OPENEYE_INCHIKEY>
QXKJWZYTSHGWOC-KBXCAEBGSA-N

> <FORMULA>
C20H22N4O5

$$$$
