@<TRIPOS>MOLECULE
/home/pku/3cl/gett_pdb/6BIB/6BIB_mol2/ligand/6BIB_DW7.pdb
 43 46 0 0 0
SMALL
GASTEIGER

@<TRIPOS>ATOM
      1  C34       -2.8890    2.9380   10.0270 C.2   201  DW7201      0.4219
      2  O43       -3.1170    3.6070   10.9870 O.2   201  DW7201     -0.2245
      3  O35       -2.5700    1.5940   10.0960 O.3   201  DW7201     -0.4285
      4  C36       -2.5200    1.0590   11.3950 C.3   201  DW7201      0.2368
      5  C37       -3.5440   -0.0730   11.5930 C.ar  201  DW7201      0.0213
      6  C38       -3.7820   -1.0020   10.5860 C.ar  201  DW7201     -0.0007
      7  C39       -4.6950   -2.0270   10.7990 C.ar  201  DW7201     -0.0002
      8  C40       -5.3720   -2.1370   12.0110 C.ar  201  DW7201     -0.0000
      9  C41       -5.1370   -1.2150   13.0140 C.ar  201  DW7201     -0.0002
     10  C42       -4.2210   -0.1910   12.8100 C.ar  201  DW7201     -0.0007
     11  N18       -1.6590    3.9390    2.0210 N.am  201  DW7201     -0.2054
     12  C19       -1.0000    5.0000    2.7260 C.3   201  DW7201      0.1172
     13  C20        0.0010    4.3880    3.6910 C.3   201  DW7201      0.0498
     14  C21        0.4730    5.5400    4.5390 C.3   201  DW7201      0.1311
     15  N30       -0.2020    5.4310    5.7900 N.ar  201  DW7201     -0.2305
     16  C29       -1.3240    6.0450    6.2360 C.ar  201  DW7201      0.1132
     17  C28       -1.6310    5.6130    7.5640 C.ar  201  DW7201      0.1031
     18  C27       -2.7240    5.9720    8.5260 C.3   201  DW7201      0.0805
     19  C26       -3.6590    4.8040    8.6530 C.3   201  DW7201      0.1821
     20  N33       -2.9630    3.5320    8.7200 N.am  201  DW7201     -0.1607
     21  C02       -4.5860    4.8490    7.4410 C.2   201  DW7201      0.2621
     22  O01       -4.4100    4.1620    6.4820 O.2   201  DW7201     -0.2715
     23  N32       -0.6470    4.7610    7.7970 N.ar  201  DW7201     -0.1331
     24  N31        0.1760    4.6530    6.7600 N.ar  201  DW7201     -0.0641
     25  N13       -6.6090    5.8450    3.9780 N.am  201  DW7201     -0.2030
     26  C14       -6.1570    6.1760    2.6440 C.3   201  DW7201      0.1287
     27  C15       -5.4090    5.0020    2.0370 C.3   201  DW7201      0.0340
     28  C16       -3.9590    4.9820    2.5260 C.3   201  DW7201      0.0887
     29  C17       -3.0920    3.8930    1.9010 C.2   201  DW7201      0.2414
     30  O22       -3.5590    2.9790    1.3320 O.2   201  DW7201     -0.2733
     31  C23       -7.4270    6.4610    1.8830 C.3   201  DW7201      0.2036
     32  O24       -8.1080    7.4870    2.6060 O.3   201  DW7201     -0.2185
     33  N03       -5.6630    5.7630    7.5470 N.am  201  DW7201     -0.1963
     34  C04       -6.6250    5.8920    6.4820 C.3   201  DW7201      0.1728
     35  C12       -5.9820    6.3440    5.1780 C.2   201  DW7201      0.2612
     36  O25       -5.0320    7.0560    5.1560 O.2   201  DW7201     -0.2715
     37  C05       -7.6180    6.9210    6.9690 C.3   201  DW7201      0.0311
     38  C06       -8.4140    6.4670    8.1920 C.3   201  DW7201      0.0022
     39  C11       -9.4050    7.5790    8.5330 C.3   201  DW7201      0.0001
     40  C10      -10.4710    7.1500    9.5230 C.3   201  DW7201      0.0000
     41  C09      -11.1050    5.8190    9.1730 C.3   201  DW7201      0.0000
     42  C08      -10.0570    4.7470    9.0140 C.3   201  DW7201      0.0000
     43  C07       -9.0940    5.1240    7.9140 C.3   201  DW7201      0.0001
@<TRIPOS>BOND
     1    30    29    2
     2    31    32    1
     3    31    26    1
     4    29    11   am
     5    29    28    1
     6    11    12    1
     7    27    28    1
     8    27    26    1
     9    26    25    1
    10    12    13    1
    11    13    14    1
    12    25    35   am
    13    14    15    1
    14    36    35    2
    15    35    34    1
    16    15    16   ar
    17    15    24   ar
    18    16    17   ar
    19    34    37    1
    20    34    33    1
    21    22    21    2
    22    24    23   ar
    23    37    38    1
    24    21    33   am
    25    21    19    1
    26    17    23   ar
    27    17    18    1
    28    43    38    1
    29    43    42    1
    30    38    39    1
    31    18    19    1
    32    39    40    1
    33    19    20    1
    34    20     1   am
    35    42    41    1
    36    41    40    1
    37     1     3    1
    38     1     2    2
    39     3     4    1
    40     6     7   ar
    41     6     5   ar
    42     7     8   ar
    43     4     5    1
    44     5    10   ar
    45     8     9   ar
    46    10     9   ar
