@<TRIPOS>MOLECULE
/home/pku/3cl/gett_pdb/5T6G/5T6G_mol2/ligand/5T6G_N40.pdb
 33 34 0 0 0
SMALL
GASTEIGER

@<TRIPOS>ATOM
      1  C03        9.6190    7.8590   -8.8460 C.3   201  N40201      0.1705
      2  C04        9.0900    6.8600   -9.8700 C.3   201  N40201      0.0271
      3  C05        7.6040    7.0260  -10.1480 C.3   201  N40201      0.0019
      4  C06        6.8560    5.7020  -10.2890 C.3   201  N40201      0.0001
      5  C07        5.3970    5.9220  -10.7240 C.3   201  N40201      0.0000
      6  C08        4.5210    4.6790  -10.6000 C.3   201  N40201      0.0000
      7  C09        3.2240    4.8360  -11.3800 C.3   201  N40201      0.0000
      8  C10        2.1670    3.8070  -10.9990 C.3   201  N40201      0.0000
      9  C12        9.5990   11.9070   -8.5720 C.3   201  N40201      0.1747
     10  C13        9.4690   12.7170   -7.2960 C.3   201  N40201      0.0287
     11  C14        8.5500   12.0870   -6.2650 C.3   201  N40201      0.0019
     12  C15        7.1420   12.0100   -6.8520 C.3   201  N40201      0.0001
     13  C16        6.0900   11.6330   -5.8050 C.3   201  N40201      0.0000
     14  C17        6.1860   12.5020   -4.5500 C.3   201  N40201      0.0000
     15  C18        7.5940   12.5310   -3.9670 C.3   201  N40201      0.0000
     16  C19        8.6280   12.9550   -5.0010 C.3   201  N40201      0.0001
     17  C20       10.3800   12.7420   -9.5720 C.2   201  N40201      0.2591
     18  C22       10.2610   14.3930  -11.4470 C.3   201  N40201      0.1287
     19  C23        9.8270   13.8860  -12.8310 C.3   201  N40201      0.0335
     20  C24       10.1370   12.4110  -13.1150 C.3   201  N40201      0.0818
     21  C25        9.9520   12.1040  -14.5360 C.2   201  N40201      0.2410
     22  C27       11.9340   10.9460  -13.8300 C.3   201  N40201      0.1156
     23  C28       11.5730   12.0410  -12.7880 C.3   201  N40201      0.0326
     24  C30        9.8720   15.8650  -11.3110 C.3   201  N40201      0.2036
     25  N11       10.2330   10.6260   -8.3420 N.3   201  N40201     -0.0742
     26  N21        9.5940   13.5840  -10.4530 N.am  201  N40201     -0.2033
     27  N26       11.0750   11.1810  -14.9610 N.am  201  N40201     -0.2054
     28  O01        9.3180    9.9300  -10.6700 O.2   201  N40201     -0.1561
     29  O29        9.0690   12.5220  -15.2150 O.2   201  N40201     -0.2734
     30  O31       10.3710   16.3490  -10.1070 O.3   201  N40201     -0.2185
     31  O32       11.5610   12.7050   -9.6290 O.2   201  N40201     -0.2718
     32  O33       11.4300    9.2730  -10.1830 O.2   201  N40201     -0.1561
     33  S02       10.1370    9.4440   -9.5610 S.O2  201  N40201      0.0577
@<TRIPOS>BOND
     1    29    21    2
     2    27    21   am
     3    27    22    1
     4    21    20    1
     5    22    23    1
     6    20    19    1
     7    20    23    1
     8    19    18    1
     9    18    24    1
    10    18    26    1
    11     7     8    1
    12     7     6    1
    13    24    30    1
    14     5     6    1
    15     5     4    1
    16    28    33    2
    17    26    17   am
    18     4     3    1
    19    32    33    2
    20     3     2    1
    21     2     1    1
    22    31    17    2
    23    17     9    1
    24    33     1    1
    25    33    25    1
    26     9    25    1
    27     9    10    1
    28    10    11    1
    29    12    11    1
    30    12    13    1
    31    11    16    1
    32    13    14    1
    33    16    15    1
    34    14    15    1
