WB1
  -OEChem-02242320043D

 22 23  0     0  0  0  0  0  0999 V2000
    2.1790    0.9460   -0.0010 C   0  0  0  0  0  0  0  0  0  0  0  0
    4.2840   -0.3930   -0.0010 C   0  0  0  0  0  0  0  0  0  0  0  0
    2.7810   -0.2940   -0.0010 C   0  0  0  0  0  0  0  0  0  0  0  0
    2.0160   -1.4510    0.0000 C   0  0  0  0  0  0  0  0  0  0  0  0
    0.6400   -1.3750    0.0010 C   0  0  0  0  0  0  0  0  0  0  0  0
    0.0190   -0.1290    0.0000 C   0  0  0  0  0  0  0  0  0  0  0  0
   -1.3880    0.3140   -0.0000 C   0  0  0  0  0  0  0  0  0  0  0  0
   -1.3630    1.6790   -0.0010 C   0  0  0  0  0  0  0  0  0  0  0  0
    0.7910    1.0430    0.0050 C   0  0  0  0  0  0  0  0  0  0  0  0
   -2.5790   -0.5420   -0.0000 C   0  0  0  0  0  0  0  0  0  0  0  0
   -0.0800    2.1130   -0.0010 N   0  0  0  0  0  0  0  0  0  0  0  0
   -3.8080    0.0120   -0.0010 O   0  0  0  0  0  0  0  0  0  0  0  0
   -2.4580   -1.7520   -0.0000 O   0  0  0  0  0  0  0  0  0  0  0  0
    2.7830    1.8400   -0.0020 H   0  0  0  0  0  0  0  0  0  0  0  0
    4.6470   -0.4170    1.0270 H   0  0  0  0  0  0  0  0  0  0  0  0
    4.5880   -1.3060   -0.5150 H   0  0  0  0  0  0  0  0  0  0  0  0
    4.7060    0.4700   -0.5150 H   0  0  0  0  0  0  0  0  0  0  0  0
    2.5010   -2.4160    0.0000 H   0  0  0  0  0  0  0  0  0  0  0  0
    0.0460   -2.2770    0.0010 H   0  0  0  0  0  0  0  0  0  0  0  0
   -2.2340    2.3160   -0.0010 H   0  0  0  0  0  0  0  0  0  0  0  0
    0.1880    3.0450   -0.0020 H   0  0  0  0  0  0  0  0  0  0  0  0
   -4.5630   -0.5920   -0.0010 H   0  0  0  0  0  0  0  0  0  0  0  0
  8 11  1  0  0  0  0
  9 11  1  0  0  0  0
  7  8  2  0  0  0  0
  1  9  2  0  0  0  0
  6  9  1  0  0  0  0
 10 13  2  0  0  0  0
  7 10  1  0  0  0  0
  6  7  1  0  0  0  0
  1  3  1  0  0  0  0
 10 12  1  0  0  0  0
  5  6  2  0  0  0  0
  2  3  1  0  0  0  0
  3  4  2  0  0  0  0
  4  5  1  0  0  0  0
  1 14  1  0  0  0  0
  2 15  1  0  0  0  0
  2 16  1  0  0  0  0
  2 17  1  0  0  0  0
  4 18  1  0  0  0  0
  5 19  1  0  0  0  0
  8 20  1  0  0  0  0
 11 21  1  0  0  0  0
 12 22  1  0  0  0  0
M  END
> <OPENEYE_ISO_SMILES>
Cc1ccc2c(c1)[nH]cc2C(=O)O

> <OPENEYE_INCHI>
InChI=1S/C10H9NO2/c1-6-2-3-7-8(10(12)13)5-11-9(7)4-6/h2-5,11H,1H3,(H,12,13)

> <OPENEYE_INCHIKEY>
PHHZCIOPSFQASN-UHFFFAOYSA-N

> <FORMULA>
C10H9NO2

$$$$
