@<TRIPOS>MOLECULE
/home/pku/3cl/gett_pdb/7FR8/7FR8_mol2/ligand/7FR8_WXF.pdb
 33 35 0 0 0
SMALL
GASTEIGER

@<TRIPOS>ATOM
      1  C18      -24.8470   -7.0850  -21.7540 C.3   201  WXF201      0.0638
      2  C17      -23.9930   -5.8450  -21.6940 C.3   201  WXF201      0.0385
      3  C15      -19.4160   -7.3160  -21.8690 C.ar  201  WXF201     -0.0293
      4  C14      -18.1100   -7.4880  -21.3720 C.ar  201  WXF201      0.0307
      5  C12      -18.1490   -5.4570  -20.2850 C.ar  201  WXF201      0.1612
      6  C01      -23.8880   -8.2860  -18.3620 C.3   201  WXF201     -0.0372
      7  C02      -23.7030   -7.9800  -19.8680 C.3   201  WXF201      0.0716
      8  C03      -22.7150   -6.8330  -19.9380 C.3   201  WXF201      0.0411
      9  C05      -21.4760   -5.8570  -22.0160 C.2   201  WXF201      0.2490
     10  C06      -20.0750   -6.1740  -21.5380 C.ar  201  WXF201      0.0674
     11  C07      -19.4090   -5.2090  -20.7180 C.ar  201  WXF201      0.1235
     12  C09      -18.7950   -3.4960  -19.5110 C.ar  201  WXF201      0.2952
     13  N04      -22.6720   -6.1700  -21.2230 N.am  201  WXF201     -0.2928
     14  N08      -19.8010   -3.9880  -20.2320 N.ar  201  WXF201     -0.1928
     15  N11      -17.7880   -4.3680  -19.5300 N.ar  201  WXF201     -0.2928
     16  N13      -17.5060   -6.5850  -20.6090 N.ar  201  WXF201     -0.2358
     17  O10      -18.8190   -2.2160  -18.8260 O.3   201  WXF201     -0.4796
     18  O16      -21.6060   -5.3020  -23.0660 O.2   201  WXF201     -0.2699
     19  O19      -24.9610   -7.6970  -20.4740 O.3   201  WXF201     -0.3737
     20 H181      -24.3870   -7.7920  -22.4680 H     201  WXF201      0.0575
     21 H182      -25.8200   -6.8200  -22.1280 H     201  WXF201      0.0575
     22 H171      -24.4470   -5.1170  -21.0330 H     201  WXF201      0.0487
     23 H172      -23.9180   -5.3910  -22.6680 H     201  WXF201      0.0487
     24 H151      -19.8820   -8.0590  -22.4690 H     201  WXF201      0.0641
     25 H141      -17.5790   -8.3720  -21.6260 H     201  WXF201      0.0830
     26 H013      -23.7560   -9.3470  -18.1900 H     201  WXF201      0.0255
     27 H011      -24.8720   -7.9880  -18.0490 H     201  WXF201      0.0255
     28 H012      -23.1370   -7.7290  -17.7750 H     201  WXF201      0.0255
     29 H021      -23.2770   -8.8450  -20.3510 H     201  WXF201      0.0609
     30 H031      -22.9820   -6.1100  -19.1790 H     201  WXF201      0.0490
     31 H032      -21.7470   -7.2200  -19.6880 H     201  WXF201      0.0490
     32 H111      -16.9250   -4.2540  -19.0720 H     201  WXF201      0.1718
     33 H101      -19.7300   -1.9170  -18.7900 H     201  WXF201      0.2953
@<TRIPOS>BOND
     1    18     9    2
     2    23     2    1
     3    24     3    1
     4    20     1    1
     5    21     1    1
     6     9    10    1
     7     9    13   am
     8     3    10   ar
     9     3     4   ar
    10     1     2    1
    11     1    19    1
    12     2    13    1
    13     2    22    1
    14    25     4    1
    15    10    11   ar
    16     4    16   ar
    17    13     8    1
    18    11     5   ar
    19    11    14   ar
    20    16     5   ar
    21    19     7    1
    22    29     7    1
    23     5    15   ar
    24    14    12   ar
    25     8     7    1
    26     8    31    1
    27     8    30    1
    28     7     6    1
    29    15    12   ar
    30    15    32    1
    31    12    17    1
    32    17    33    1
    33     6    26    1
    34     6    27    1
    35     6    28    1
