W3S
  -OEChem-02242320043D

 16 17  0     0  0  0  0  0  0999 V2000
   -1.8070    1.0370    0.0000 N   0  0  0  0  0  0  0  0  0  0  0  0
   -0.1730   -0.3700   -0.0000 N   0  0  0  0  0  0  0  0  0  0  0  0
    2.0150   -1.2470    0.0010 C   0  0  0  0  0  0  0  0  0  0  0  0
    0.6800   -1.4380   -0.0000 C   0  0  0  0  0  0  0  0  0  0  0  0
   -2.4520   -1.2890   -0.0000 N   0  0  0  0  0  0  0  0  0  0  0  0
   -1.5300   -0.2470   -0.0000 C   0  0  0  0  0  0  0  0  0  0  0  0
    0.3210    0.9180   -0.0000 C   0  0  0  0  0  0  0  0  0  0  0  0
   -0.7210    1.7280    0.0000 N   0  0  0  0  0  0  0  0  0  0  0  0
    2.5480    0.0560   -0.0000 C   0  0  0  0  0  0  0  0  0  0  0  0
    1.7140    1.1290   -0.0000 C   0  0  0  0  0  0  0  0  0  0  0  0
    2.6790   -2.0980    0.0010 H   0  0  0  0  0  0  0  0  0  0  0  0
    0.2830   -2.4420   -0.0000 H   0  0  0  0  0  0  0  0  0  0  0  0
   -3.4030   -1.0950    0.0000 H   0  0  0  0  0  0  0  0  0  0  0  0
   -2.1450   -2.2080    0.0000 H   0  0  0  0  0  0  0  0  0  0  0  0
    3.6180    0.2020    0.0010 H   0  0  0  0  0  0  0  0  0  0  0  0
    2.1150    2.1320   -0.0010 H   0  0  0  0  0  0  0  0  0  0  0  0
  9 10  2  0  0  0  0
  7 10  1  0  0  0  0
  3  9  1  0  0  0  0
  7  8  2  0  0  0  0
  1  8  1  0  0  0  0
  2  7  1  0  0  0  0
  3  4  2  0  0  0  0
  1  6  2  0  0  0  0
  2  4  1  0  0  0  0
  2  6  1  0  0  0  0
  5  6  1  0  0  0  0
  3 11  1  0  0  0  0
  4 12  1  0  0  0  0
  5 13  1  0  0  0  0
  5 14  1  0  0  0  0
  9 15  1  0  0  0  0
 10 16  1  0  0  0  0
M  END
> <OPENEYE_ISO_SMILES>
c1ccn2c(c1)nnc2N

> <OPENEYE_INCHI>
InChI=1S/C6H6N4/c7-6-9-8-5-3-1-2-4-10(5)6/h1-4H,(H2,7,9)

> <OPENEYE_INCHIKEY>
NCZQAIFOXJOCFI-UHFFFAOYSA-N

> <FORMULA>
C6H6N4

$$$$
