@<TRIPOS>MOLECULE
/home/pku/3cl/gett_pdb/5RVC/5RVC_mol2/ligand/5RVC_W7V.pdb
 30 32 0 0 0
SMALL
GASTEIGER

@<TRIPOS>ATOM
      1  C10      -52.6170    1.7840   -3.8440 C.3   201  W7V201     -0.0388
      2  C15      -53.7080   -0.7630   -2.0560 C.ar  201  W7V201      0.0437
      3  C01      -50.4670   -2.1140   -3.5080 C.3   201  W7V201      0.0084
      4  C03      -50.8400    0.3370   -3.0030 C.2   201  W7V201      0.2261
      5  C05      -51.5850    1.6480   -2.6430 C.3   201  W7V201      0.0506
      6  C06      -50.8360    1.8740   -1.4040 C.3   201  W7V201     -0.0350
      7  C07      -52.2820    2.0830   -1.3910 C.3   201  W7V201     -0.0261
      8  C08      -53.7760    2.5270   -1.8590 C.3   201  W7V201     -0.0492
      9  C09      -53.7270    2.8270   -3.2710 C.3   201  W7V201     -0.0518
     10  C11      -52.7300   -1.4620   -2.7220 C.ar  201  W7V201      0.0734
     11  C12      -53.2330   -2.7350   -2.9750 C.ar  201  W7V201      0.0705
     12  N02      -51.3820   -1.0360   -3.0910 N.am  201  W7V201     -0.2714
     13  N13      -54.4800   -2.7700   -2.4760 N.ar  201  W7V201     -0.1804
     14  N14      -54.7530   -1.5490   -1.9140 N.ar  201  W7V201     -0.2829
     15  O04      -49.7140    0.4840   -3.3420 O.2   201  W7V201     -0.2746
     16 H102      -52.2120    2.0490   -4.6840 H     201  W7V201      0.0275
     17 H101      -53.0170    0.9300   -3.8390 H     201  W7V201      0.0275
     18 H151      -53.6450    0.1040   -1.7570 H     201  W7V201      0.0843
     19 H012      -49.5470   -1.8190   -3.4250 H     201  W7V201      0.0433
     20 H013      -50.6470   -2.3480   -4.4320 H     201  W7V201      0.0433
     21 H011      -50.5990   -2.8940   -2.9480 H     201  W7V201      0.0433
     22 H061      -50.3030    2.6840   -1.3880 H     201  W7V201      0.0278
     23 H062      -50.5250    1.0940   -0.9360 H     201  W7V201      0.0278
     24 H071      -52.5090    1.3410   -0.8110 H     201  W7V201      0.0311
     25 H082      -54.4210    1.8260   -1.6890 H     201  W7V201      0.0268
     26 H081      -54.0340    3.3270   -1.3750 H     201  W7V201      0.0268
     27 H091      -54.5900    2.6850   -3.6850 H     201  W7V201      0.0266
     28 H092      -53.4300    3.7400   -3.4080 H     201  W7V201      0.0266
     29 H121      -52.7910   -3.4280   -3.4100 H     201  W7V201      0.0867
     30 H141      -55.4930   -1.3290   -1.5360 H     201  W7V201      0.1883
@<TRIPOS>BOND
     1    16     1    1
     2    20     3    1
     3     1    17    1
     4     1     9    1
     5     1     5    1
     6    27     9    1
     7     3    19    1
     8     3    12    1
     9     3    21    1
    10    29    11    1
    11    28     9    1
    12    15     4    2
    13     9     8    1
    14    12     4   am
    15    12    10    1
    16     4     5    1
    17    11    10   ar
    18    11    13   ar
    19    10     2   ar
    20     5     6    1
    21     5     7    1
    22    13    14   ar
    23     2    14   ar
    24     2    18    1
    25    14    30    1
    26     8    25    1
    27     8     7    1
    28     8    26    1
    29     6     7    1
    30     6    22    1
    31     6    23    1
    32     7    24    1
