LMW
  -OEChem-02242320033D

 29 29  0     1  0  0  0  0  0999 V2000
    1.1840    0.2970    0.2250 N   0  0  3  0  0  0  0  0  0  0  0  0
    2.4530   -1.7680   -0.0970 C   0  0  0  0  0  0  0  0  0  0  0  0
   -0.2020    0.1320    0.1160 C   0  0  0  0  0  0  0  0  0  0  0  0
   -0.9680    1.0930   -0.5290 C   0  0  0  0  0  0  0  0  0  0  0  0
   -2.3350    0.9300   -0.6360 C   0  0  0  0  0  0  0  0  0  0  0  0
   -2.9440   -0.1960   -0.0980 C   0  0  0  0  0  0  0  0  0  0  0  0
   -0.8110   -0.9970    0.6490 C   0  0  0  0  0  0  0  0  0  0  0  0
    1.8690    2.5940    0.7110 C   0  0  0  0  0  0  0  0  0  0  0  0
    1.8260    1.4850   -0.3430 C   0  0  0  0  0  0  0  0  0  0  0  0
    1.9910   -0.7150    0.9110 C   0  0  0  0  0  0  0  0  0  0  0  0
    3.3330   -1.1640   -1.0480 O   0  0  0  0  0  0  0  0  0  0  0  0
   -4.3300   -0.3620   -0.2070 N   0  0  0  0  0  0  0  0  0  0  0  0
   -2.1780   -1.1580    0.5470 C   0  0  0  0  0  0  0  0  0  0  0  0
    2.9780   -2.5670    0.4270 H   0  0  0  0  0  0  0  0  0  0  0  0
    1.5870   -2.1810   -0.6150 H   0  0  0  0  0  0  0  0  0  0  0  0
   -0.4940    1.9690   -0.9470 H   0  0  0  0  0  0  0  0  0  0  0  0
   -2.9310    1.6780   -1.1380 H   0  0  0  0  0  0  0  0  0  0  0  0
   -0.2140   -1.7480    1.1470 H   0  0  0  0  0  0  0  0  0  0  0  0
    2.3470    3.4780    0.2890 H   0  0  0  0  0  0  0  0  0  0  0  0
    0.8530    2.8420    1.0180 H   0  0  0  0  0  0  0  0  0  0  0  0
    2.4370    2.2520    1.5760 H   0  0  0  0  0  0  0  0  0  0  0  0
    2.8420    1.2370   -0.6500 H   0  0  0  0  0  0  0  0  0  0  0  0
    1.2580    1.8270   -1.2070 H   0  0  0  0  0  0  0  0  0  0  0  0
    2.8610   -0.2400    1.3650 H   0  0  0  0  0  0  0  0  0  0  0  0
    1.3920   -1.1920    1.6870 H   0  0  0  0  0  0  0  0  0  0  0  0
    3.6660   -1.7750   -1.7190 H   0  0  0  0  0  0  0  0  0  0  0  0
   -4.8650    0.3100   -0.6580 H   0  0  0  0  0  0  0  0  0  0  0  0
   -4.7550   -1.1480    0.1690 H   0  0  0  0  0  0  0  0  0  0  0  0
   -2.6510   -2.0360    0.9620 H   0  0  0  0  0  0  0  0  0  0  0  0
  2 11  1  0  0  0  0
  8  9  1  0  0  0  0
  1  9  1  0  0  0  0
  2 10  1  0  0  0  0
  1 10  1  0  0  0  0
  1  3  1  0  0  0  0
  3  4  2  0  0  0  0
  3  7  1  0  0  0  0
  4  5  1  0  0  0  0
  7 13  2  0  0  0  0
  5  6  2  0  0  0  0
  6 13  1  0  0  0  0
  6 12  1  0  0  0  0
  2 14  1  0  0  0  0
  2 15  1  0  0  0  0
  4 16  1  0  0  0  0
  5 17  1  0  0  0  0
  7 18  1  0  0  0  0
  8 19  1  0  0  0  0
  8 20  1  0  0  0  0
  8 21  1  0  0  0  0
  9 22  1  0  0  0  0
  9 23  1  0  0  0  0
 10 24  1  0  0  0  0
 10 25  1  0  0  0  0
 11 26  1  0  0  0  0
 12 27  1  0  0  0  0
 12 28  1  0  0  0  0
 13 29  1  0  0  0  0
M  END
> <OPENEYE_ISO_SMILES>
CCN(CCO)c1ccc(cc1)N

> <OPENEYE_INCHI>
InChI=1S/C10H16N2O/c1-2-12(7-8-13)10-5-3-9(11)4-6-10/h3-6,13H,2,7-8,11H2,1H3

> <OPENEYE_INCHIKEY>
WFXLRLQSHRNHCE-UHFFFAOYSA-N

> <FORMULA>
C10H16N2O

$$$$
