JJG
  -OEChem-02242320033D

 32 33  0     0  0  0  0  0  0999 V2000
   -3.7120    1.0580   -0.4110 C   0  0  0  0  0  0  0  0  0  0  0  0
    4.9300   -1.3460   -0.2130 C   0  0  0  0  0  0  0  0  0  0  0  0
    5.1330   -0.0140    0.1020 C   0  0  0  0  0  0  0  0  0  0  0  0
    4.0550    0.8380    0.2330 C   0  0  0  0  0  0  0  0  0  0  0  0
    2.7640    0.3570    0.0490 C   0  0  0  0  0  0  0  0  0  0  0  0
    2.5640   -0.9820   -0.2670 C   0  0  0  0  0  0  0  0  0  0  0  0
    3.6470   -1.8270   -0.4020 C   0  0  0  0  0  0  0  0  0  0  0  0
    1.3850    1.4410    0.2160 S   0  0  0  0  0  0  0  0  0  0  0  0
   -0.0300    0.3550   -0.1130 C   0  0  0  0  0  0  0  0  0  0  0  0
   -1.3260    1.1600   -0.0050 C   0  0  0  0  0  0  0  0  0  0  0  0
   -2.4720    0.2800   -0.2710 N   0  0  0  0  0  0  0  0  0  0  0  0
   -2.6110   -0.7380    0.7800 C   0  0  0  0  0  0  0  0  0  0  0  0
   -3.7770   -1.6670    0.4330 C   0  0  0  0  0  0  0  0  0  0  0  0
   -4.9670   -0.8900    0.2710 O   0  0  0  0  0  0  0  0  0  0  0  0
   -4.8670    0.1100   -0.7460 C   0  0  0  0  0  0  0  0  0  0  0  0
   -3.9250    1.5740    0.5250 H   0  0  0  0  0  0  0  0  0  0  0  0
   -3.5960    1.7880   -1.2120 H   0  0  0  0  0  0  0  0  0  0  0  0
    5.7750   -2.0100   -0.3150 H   0  0  0  0  0  0  0  0  0  0  0  0
    6.1360    0.3590    0.2450 H   0  0  0  0  0  0  0  0  0  0  0  0
    4.2140    1.8780    0.4790 H   0  0  0  0  0  0  0  0  0  0  0  0
    1.5620   -1.3590   -0.4110 H   0  0  0  0  0  0  0  0  0  0  0  0
    3.4920   -2.8670   -0.6480 H   0  0  0  0  0  0  0  0  0  0  0  0
    0.0570   -0.0610   -1.1170 H   0  0  0  0  0  0  0  0  0  0  0  0
   -0.0430   -0.4560    0.6160 H   0  0  0  0  0  0  0  0  0  0  0  0
   -1.4130    1.5750    0.9990 H   0  0  0  0  0  0  0  0  0  0  0  0
   -1.3130    1.9700   -0.7340 H   0  0  0  0  0  0  0  0  0  0  0  0
   -1.6910   -1.3180    0.8490 H   0  0  0  0  0  0  0  0  0  0  0  0
   -2.8060   -0.2500    1.7350 H   0  0  0  0  0  0  0  0  0  0  0  0
   -3.5580   -2.1950   -0.4950 H   0  0  0  0  0  0  0  0  0  0  0  0
   -3.9210   -2.3880    1.2380 H   0  0  0  0  0  0  0  0  0  0  0  0
   -5.7990    0.6750   -0.7940 H   0  0  0  0  0  0  0  0  0  0  0  0
   -4.6800   -0.3660   -1.7080 H   0  0  0  0  0  0  0  0  0  0  0  0
  6  7  2  0  0  0  0
  2  7  1  0  0  0  0
  5  6  1  0  0  0  0
  2  3  2  0  0  0  0
  5  8  1  0  0  0  0
  4  5  2  0  0  0  0
  3  4  1  0  0  0  0
  8  9  1  0  0  0  0
  9 10  1  0  0  0  0
 10 11  1  0  0  0  0
  1 11  1  0  0  0  0
 11 12  1  0  0  0  0
  1 15  1  0  0  0  0
 12 13  1  0  0  0  0
 14 15  1  0  0  0  0
 13 14  1  0  0  0  0
  1 16  1  0  0  0  0
  1 17  1  0  0  0  0
  2 18  1  0  0  0  0
  3 19  1  0  0  0  0
  4 20  1  0  0  0  0
  6 21  1  0  0  0  0
  7 22  1  0  0  0  0
  9 23  1  0  0  0  0
  9 24  1  0  0  0  0
 10 25  1  0  0  0  0
 10 26  1  0  0  0  0
 12 27  1  0  0  0  0
 12 28  1  0  0  0  0
 13 29  1  0  0  0  0
 13 30  1  0  0  0  0
 15 31  1  0  0  0  0
 15 32  1  0  0  0  0
M  END
> <OPENEYE_ISO_SMILES>
c1ccc(cc1)SCCN2CCOCC2

> <OPENEYE_INCHI>
InChI=1S/C12H17NOS/c1-2-4-12(5-3-1)15-11-8-13-6-9-14-10-7-13/h1-5H,6-11H2

> <OPENEYE_INCHIKEY>
QDTNFZGZGSMNCU-UHFFFAOYSA-N

> <FORMULA>
C12H17NOS

$$$$
