7ZC
  -OEChem-02242320013D

 31 32  0     0  0  0  0  0  0999 V2000
    4.2300    1.6320    0.0070 C   0  0  0  0  0  0  0  0  0  0  0  0
    2.8290    1.7400    0.2680 O   0  0  0  0  0  0  0  0  0  0  0  0
    2.0870    0.6090    0.1340 C   0  0  0  0  0  0  0  0  0  0  0  0
    2.7000   -0.5830   -0.2430 C   0  0  0  0  0  0  0  0  0  0  0  0
    1.9630   -1.7370   -0.3830 C   0  0  0  0  0  0  0  0  0  0  0  0
    0.5920   -1.7200   -0.1470 C   0  0  0  0  0  0  0  0  0  0  0  0
   -0.3910   -2.6850   -0.2080 N   0  0  0  0  0  0  0  0  0  0  0  0
   -1.6010   -2.1360    0.1190 C   0  0  0  0  0  0  0  0  0  0  0  0
   -1.4520   -0.8310    0.3960 C   0  0  0  0  0  0  0  0  0  0  0  0
   -2.5410    0.1290    0.7980 C   0  0  0  0  0  0  0  0  0  0  0  0
   -2.9500    0.9230   -0.3690 N   0  0  0  0  0  0  0  0  0  0  0  0
   -4.1630    1.6990   -0.0790 C   0  0  0  0  0  0  0  0  0  0  0  0
   -1.8590    1.7990   -0.8180 C   0  0  0  0  0  0  0  0  0  0  0  0
   -0.0300   -0.5180    0.2340 C   0  0  0  0  0  0  0  0  0  0  0  0
    0.7280    0.6460    0.3770 C   0  0  0  0  0  0  0  0  0  0  0  0
    4.3840    1.3000   -1.0200 H   0  0  0  0  0  0  0  0  0  0  0  0
    4.7030    2.6030    0.1500 H   0  0  0  0  0  0  0  0  0  0  0  0
    4.6720    0.9080    0.6920 H   0  0  0  0  0  0  0  0  0  0  0  0
    3.7640   -0.6020   -0.4270 H   0  0  0  0  0  0  0  0  0  0  0  0
    2.4490   -2.6560   -0.6760 H   0  0  0  0  0  0  0  0  0  0  0  0
   -0.2460   -3.6140   -0.4470 H   0  0  0  0  0  0  0  0  0  0  0  0
   -2.5370   -2.6740    0.1490 H   0  0  0  0  0  0  0  0  0  0  0  0
   -3.3980   -0.4300    1.1750 H   0  0  0  0  0  0  0  0  0  0  0  0
   -2.1700    0.7940    1.5780 H   0  0  0  0  0  0  0  0  0  0  0  0
   -3.9720    2.3750    0.7530 H   0  0  0  0  0  0  0  0  0  0  0  0
   -4.4430    2.2770   -0.9600 H   0  0  0  0  0  0  0  0  0  0  0  0
   -4.9740    1.0200    0.1830 H   0  0  0  0  0  0  0  0  0  0  0  0
   -0.9960    1.1930   -1.0920 H   0  0  0  0  0  0  0  0  0  0  0  0
   -2.1880    2.3750   -1.6830 H   0  0  0  0  0  0  0  0  0  0  0  0
   -1.5840    2.4790   -0.0110 H   0  0  0  0  0  0  0  0  0  0  0  0
    0.2540    1.5710    0.6700 H   0  0  0  0  0  0  0  0  0  0  0  0
  7  8  1  0  0  0  0
  8  9  2  0  0  0  0
  6  7  1  0  0  0  0
  9 10  1  0  0  0  0
 10 11  1  0  0  0  0
  9 14  1  0  0  0  0
 11 12  1  0  0  0  0
  6 14  2  0  0  0  0
  5  6  1  0  0  0  0
 11 13  1  0  0  0  0
 14 15  1  0  0  0  0
  4  5  2  0  0  0  0
  3 15  2  0  0  0  0
  3  4  1  0  0  0  0
  2  3  1  0  0  0  0
  1  2  1  0  0  0  0
  1 16  1  0  0  0  0
  1 17  1  0  0  0  0
  1 18  1  0  0  0  0
  4 19  1  0  0  0  0
  5 20  1  0  0  0  0
  7 21  1  0  0  0  0
  8 22  1  0  0  0  0
 10 23  1  0  0  0  0
 10 24  1  0  0  0  0
 12 25  1  0  0  0  0
 12 26  1  0  0  0  0
 12 27  1  0  0  0  0
 13 28  1  0  0  0  0
 13 29  1  0  0  0  0
 13 30  1  0  0  0  0
 15 31  1  0  0  0  0
M  END
> <OPENEYE_ISO_SMILES>
CN(C)Cc1c[nH]c2c1cc(cc2)OC

> <OPENEYE_INCHI>
InChI=1S/C12H16N2O/c1-14(2)8-9-7-13-12-5-4-10(15-3)6-11(9)12/h4-7,13H,8H2,1-3H3

> <OPENEYE_INCHIKEY>
GOERTRUXQHDLHC-UHFFFAOYSA-N

> <FORMULA>
C12H16N2O

$$$$
