@<TRIPOS>MOLECULE
/home/pku/3cl/gett_pdb/5RVJ/5RVJ_mol2/ligand/5RVJ_4JQ.pdb
 19 20 0 0 0
SMALL
GASTEIGER

@<TRIPOS>ATOM
      1  C1         3.3910    3.7520   -1.7640 C.ar  201  4JQ201     -0.0376
      2  C2         3.2640    4.8590   -0.9190 C.ar  201  4JQ201     -0.0172
      3  C3         3.2690    4.6780    0.4740 C.ar  201  4JQ201      0.1352
      4  C4         2.8660    5.6760    2.7630 C.2   201  4JQ201      0.3169
      5  C5         2.9370    4.3040    3.3480 C.3   201  4JQ201      0.0777
      6  C6         3.4110    3.2180    2.5140 C.3   201  4JQ201      0.0091
      7  C7         3.4030    3.3930    1.0160 C.ar  201  4JQ201      0.0012
      8  C8         3.5320    2.2900    0.1520 C.ar  201  4JQ201     -0.0341
      9  O1         2.5950    6.6120    3.4280 O.2   201  4JQ201     -0.2501
     10  O          3.1330    5.8570    1.3690 O.3   201  4JQ201     -0.4253
     11  C          3.5290    2.4560   -1.2060 C.ar  201  4JQ201      0.0250
     12  N          3.6650    1.3150   -2.0850 N.pl3 201  4JQ201     -0.3579
     13  H1         3.3890    3.8660   -2.6870 H     201  4JQ201      0.0637
     14  H2         3.1730    5.7120   -1.2780 H     201  4JQ201      0.0655
     15  H3         2.6820    4.1500    4.2290 H     201  4JQ201      0.0428
     16  H4         3.7150    2.4260    2.8960 H     201  4JQ201      0.0364
     17  H5         3.6240    1.4360    0.5090 H     201  4JQ201      0.0640
     18  H6         4.0960    1.4020   -2.8230 H     201  4JQ201      0.1423
     19  H7         3.2960    0.5720   -1.8630 H     201  4JQ201      0.1423
@<TRIPOS>BOND
     1    18    12    1
     2    13     1    1
     3    12    19    1
     4    12    11    1
     5     1    11   ar
     6     1     2   ar
     7    14     2    1
     8    11     8   ar
     9     2     3   ar
    10     8    17    1
    11     8     7   ar
    12     3     7   ar
    13     3    10    1
    14     7     6    1
    15    10     4    1
    16     6    16    1
    17     6     5    1
    18     4     5    1
    19     4     9    2
    20     5    15    1
