EDO
  -OEChem-02242320023D

 10  9  0     0  0  0  0  0  0999 V2000
   -0.6090   -0.2820    0.7100 C   0  0  0  0  0  0  0  0  0  0  0  0
    0.5570    0.1670    1.4020 O   0  0  0  0  0  0  0  0  0  0  0  0
   -0.6090    0.2820   -0.7100 C   0  0  0  0  0  0  0  0  0  0  0  0
    0.5570   -0.1670   -1.4020 O   0  0  0  0  0  0  0  0  0  0  0  0
   -0.6090   -1.3720    0.6680 H   0  0  0  0  0  0  0  0  0  0  0  0
   -1.4990    0.0600    1.2380 H   0  0  0  0  0  0  0  0  0  0  0  0
    0.5180   -0.2100    2.2910 H   0  0  0  0  0  0  0  0  0  0  0  0
   -1.4990   -0.0600   -1.2380 H   0  0  0  0  0  0  0  0  0  0  0  0
   -0.6090    1.3710   -0.6680 H   0  0  0  0  0  0  0  0  0  0  0  0
    0.5180    0.2100   -2.2910 H   0  0  0  0  0  0  0  0  0  0  0  0
  1  2  1  0  0  0  0
  1  3  1  0  0  0  0
  1  5  1  0  0  0  0
  1  6  1  0  0  0  0
  2  7  1  0  0  0  0
  3  4  1  0  0  0  0
  3  8  1  0  0  0  0
  3  9  1  0  0  0  0
  4 10  1  0  0  0  0
M  END
> <OPENEYE_ISO_SMILES>
C(CO)O

> <OPENEYE_INCHI>
InChI=1S/C2H6O2/c3-1-2-4/h3-4H,1-2H2

> <OPENEYE_INCHIKEY>
LYCAIKOWRPUZTN-UHFFFAOYSA-N

> <FORMULA>
C2H6O2

$$$$
