EPE
  -OEChem-02242320023D

 33 33  0     0  0  0  0  0  0999 V2000
   -0.8200   -0.3300    0.2580 N   0  0  0  0  0  0  0  0  0  0  0  0
   -1.6690    0.5570    1.0610 C   0  0  0  0  0  0  0  0  0  0  0  0
   -1.6930    0.0720    2.5110 C   0  0  0  0  0  0  0  0  0  0  0  0
   -0.3420    0.1470    3.0790 N   0  0  0  0  0  0  0  0  0  0  0  0
    0.5070   -0.7400    2.2760 C   0  0  0  0  0  0  0  0  0  0  0  0
    0.5310   -0.2550    0.8260 C   0  0  0  0  0  0  0  0  0  0  0  0
   -0.4160   -0.4410    4.4230 C   0  0  0  0  0  0  0  0  0  0  0  0
    0.9660   -0.3950    5.0760 C   0  0  0  0  0  0  0  0  0  0  0  0
    1.4020    0.9610    5.1740 O   0  0  0  0  0  0  0  0  0  0  0  0
   -0.7460    0.2580   -1.0850 C   0  0  0  0  0  0  0  0  0  0  0  0
    0.1280   -0.6210   -1.9800 C   0  0  0  0  0  0  0  0  0  0  0  0
    0.2190    0.1040   -3.6400 S   0  0  0  0  0  0  0  0  0  0  0  0
   -1.0190   -0.0010   -4.3270 O   0  0  0  0  0  0  0  0  0  0  0  0
    0.9860    1.3010   -3.6460 O   0  0  0  0  0  0  0  0  0  0  0  0
    1.1100   -0.8700   -4.3970 O   0  0  0  0  0  0  0  0  0  0  0  0
   -2.6830    0.5510    0.6590 H   0  0  0  0  0  0  0  0  0  0  0  0
   -1.2710    1.5710    1.0240 H   0  0  0  0  0  0  0  0  0  0  0  0
   -2.0440   -0.9590    2.5430 H   0  0  0  0  0  0  0  0  0  0  0  0
   -2.3670    0.7020    3.0930 H   0  0  0  0  0  0  0  0  0  0  0  0
    1.5200   -0.7340    2.6770 H   0  0  0  0  0  0  0  0  0  0  0  0
    0.1090   -1.7540    2.3130 H   0  0  0  0  0  0  0  0  0  0  0  0
    1.2040   -0.8850    0.2440 H   0  0  0  0  0  0  0  0  0  0  0  0
    0.8810    0.7750    0.7940 H   0  0  0  0  0  0  0  0  0  0  0  0
   -0.7480   -1.4760    4.3480 H   0  0  0  0  0  0  0  0  0  0  0  0
   -1.1230    0.1240    5.0290 H   0  0  0  0  0  0  0  0  0  0  0  0
    1.6730   -0.9610    4.4700 H   0  0  0  0  0  0  0  0  0  0  0  0
    0.9110   -0.8320    6.0730 H   0  0  0  0  0  0  0  0  0  0  0  0
    2.2750    0.9450    5.5900 H   0  0  0  0  0  0  0  0  0  0  0  0
   -1.7480    0.3230   -1.5090 H   0  0  0  0  0  0  0  0  0  0  0  0
   -0.3130    1.2560   -1.0220 H   0  0  0  0  0  0  0  0  0  0  0  0
    1.1310   -0.6870   -1.5570 H   0  0  0  0  0  0  0  0  0  0  0  0
   -0.3040   -1.6200   -2.0440 H   0  0  0  0  0  0  0  0  0  0  0  0
    1.1940   -0.5290   -5.2980 H   0  0  0  0  0  0  0  0  0  0  0  0
  1  2  1  0  0  0  0
  1  6  1  0  0  0  0
  1 10  1  0  0  0  0
  2  3  1  0  0  0  0
  2 16  1  0  0  0  0
  2 17  1  0  0  0  0
  3  4  1  0  0  0  0
  3 18  1  0  0  0  0
  3 19  1  0  0  0  0
  4  5  1  0  0  0  0
  4  7  1  0  0  0  0
  5  6  1  0  0  0  0
  5 20  1  0  0  0  0
  5 21  1  0  0  0  0
  6 22  1  0  0  0  0
  6 23  1  0  0  0  0
  7  8  1  0  0  0  0
  7 24  1  0  0  0  0
  7 25  1  0  0  0  0
  8  9  1  0  0  0  0
  8 26  1  0  0  0  0
  8 27  1  0  0  0  0
  9 28  1  0  0  0  0
 10 11  1  0  0  0  0
 10 29  1  0  0  0  0
 10 30  1  0  0  0  0
 11 12  1  0  0  0  0
 11 31  1  0  0  0  0
 11 32  1  0  0  0  0
 12 13  2  0  0  0  0
 12 14  2  0  0  0  0
 12 15  1  0  0  0  0
 15 33  1  0  0  0  0
M  END
> <OPENEYE_ISO_SMILES>
C1CN(CCN1CCO)CCS(=O)(=O)O

> <OPENEYE_INCHI>
InChI=1S/C8H18N2O4S/c11-7-5-9-1-3-10(4-2-9)6-8-15(12,13)14/h11H,1-8H2,(H,12,13,14)

> <OPENEYE_INCHIKEY>
JKMHFZQWWAIEOD-UHFFFAOYSA-N

> <FORMULA>
C8H18N2O4S

$$$$
