VVY
  -OEChem-02242320043D

 30 31  0     0  0  0  0  0  0999 V2000
   -2.5290   -0.1480    0.0770 N   0  0  0  0  0  0  0  0  0  0  0  0
    2.4290    1.0740    0.0520 C   0  0  0  0  0  0  0  0  0  0  0  0
    3.6870    1.6430    0.0640 C   0  0  0  0  0  0  0  0  0  0  0  0
    4.8110    0.8400    0.0060 C   0  0  0  0  0  0  0  0  0  0  0  0
    4.6790   -0.5340   -0.0640 C   0  0  0  0  0  0  0  0  0  0  0  0
    3.4230   -1.1090   -0.0750 C   0  0  0  0  0  0  0  0  0  0  0  0
   -4.9110    0.3150    0.1220 C   0  0  0  0  0  0  0  0  0  0  0  0
   -1.2970   -1.9890   -0.0460 O   0  0  0  0  0  0  0  0  0  0  0  0
   -1.3390   -0.7790    0.0220 C   0  0  0  0  0  0  0  0  0  0  0  0
   -0.0610    0.0190    0.0460 C   0  0  0  0  0  0  0  0  0  0  0  0
    1.0570   -0.8690   -0.0220 O   0  0  0  0  0  0  0  0  0  0  0  0
    2.2940   -0.3060   -0.0110 C   0  0  0  0  0  0  0  0  0  0  0  0
   -3.8460   -0.8000    0.0620 C   0  0  0  0  0  0  0  0  0  0  0  0
   -4.1420    1.5570   -0.4040 C   0  0  0  0  0  0  0  0  0  0  0  0
   -2.7240    1.3110    0.1690 C   0  0  0  0  0  0  0  0  0  0  0  0
    1.5510    1.7010    0.0970 H   0  0  0  0  0  0  0  0  0  0  0  0
    3.7930    2.7170    0.1170 H   0  0  0  0  0  0  0  0  0  0  0  0
    5.7940    1.2880    0.0150 H   0  0  0  0  0  0  0  0  0  0  0  0
    5.5590   -1.1590   -0.1090 H   0  0  0  0  0  0  0  0  0  0  0  0
    3.3200   -2.1820   -0.1300 H   0  0  0  0  0  0  0  0  0  0  0  0
   -5.7530    0.0800   -0.5280 H   0  0  0  0  0  0  0  0  0  0  0  0
   -5.2480    0.4760    1.1460 H   0  0  0  0  0  0  0  0  0  0  0  0
   -0.0390    0.6970   -0.8080 H   0  0  0  0  0  0  0  0  0  0  0  0
   -0.0100    0.5970    0.9690 H   0  0  0  0  0  0  0  0  0  0  0  0
   -3.9640   -1.3770   -0.8550 H   0  0  0  0  0  0  0  0  0  0  0  0
   -3.9450   -1.4540    0.9290 H   0  0  0  0  0  0  0  0  0  0  0  0
   -4.1270    1.5740   -1.4930 H   0  0  0  0  0  0  0  0  0  0  0  0
   -4.5700    2.4780   -0.0070 H   0  0  0  0  0  0  0  0  0  0  0  0
   -2.6720    1.6360    1.2080 H   0  0  0  0  0  0  0  0  0  0  0  0
   -1.9780    1.8320   -0.4310 H   0  0  0  0  0  0  0  0  0  0  0  0
  4  5  2  0  0  0  0
  5  6  1  0  0  0  0
  3  4  1  0  0  0  0
  6 12  2  0  0  0  0
  2  3  2  0  0  0  0
  2 12  1  0  0  0  0
 11 12  1  0  0  0  0
 10 11  1  0  0  0  0
  9 10  1  0  0  0  0
  1  9  1  0  0  0  0
  8  9  2  0  0  0  0
  1 13  1  0  0  0  0
  1 15  1  0  0  0  0
  7 13  1  0  0  0  0
 14 15  1  0  0  0  0
  7 14  1  0  0  0  0
  2 16  1  0  0  0  0
  3 17  1  0  0  0  0
  4 18  1  0  0  0  0
  5 19  1  0  0  0  0
  6 20  1  0  0  0  0
  7 21  1  0  0  0  0
  7 22  1  0  0  0  0
 10 23  1  0  0  0  0
 10 24  1  0  0  0  0
 13 25  1  0  0  0  0
 13 26  1  0  0  0  0
 14 27  1  0  0  0  0
 14 28  1  0  0  0  0
 15 29  1  0  0  0  0
 15 30  1  0  0  0  0
M  END
> <OPENEYE_ISO_SMILES>
c1ccc(cc1)OCC(=O)N2CCCC2

> <OPENEYE_INCHI>
InChI=1S/C12H15NO2/c14-12(13-8-4-5-9-13)10-15-11-6-2-1-3-7-11/h1-3,6-7H,4-5,8-10H2

> <OPENEYE_INCHIKEY>
FYNNGWZCHCSIQA-UHFFFAOYSA-N

> <FORMULA>
C12H15NO2

$$$$
