04R
  -OEChem-02242320003D

 28 29  0     0  0  0  0  0  0999 V2000
    2.4500   -2.4410   -0.2570 F   0  0  0  0  0  0  0  0  0  0  0  0
    2.4340   -1.0800    0.0650 C   0  0  0  0  0  0  0  0  0  0  0  0
    2.7740   -0.9160    1.4130 F   0  0  0  0  0  0  0  0  0  0  0  0
    3.3590   -0.4010   -0.7350 F   0  0  0  0  0  0  0  0  0  0  0  0
    1.0550   -0.5220   -0.1760 C   0  0  0  0  0  0  0  0  0  0  0  0
   -0.0020   -1.2110   -0.5300 N   0  0  0  0  0  0  0  0  0  0  0  0
   -1.0840   -0.3250   -0.6520 N   0  0  0  0  0  0  0  0  0  0  0  0
   -0.6390    0.9080   -0.3590 C   0  0  0  0  0  0  0  0  0  0  0  0
    0.6810    0.8140   -0.0560 C   0  0  0  0  0  0  0  0  0  0  0  0
    1.5470    1.9880    0.3250 C   0  0  0  0  0  0  0  0  0  0  0  0
    0.8250    3.2760   -0.0890 C   0  0  0  0  0  0  0  0  0  0  0  0
   -0.6150    3.2450    0.4320 C   0  0  0  0  0  0  0  0  0  0  0  0
   -1.4210    2.1980   -0.3450 C   0  0  0  0  0  0  0  0  0  0  0  0
   -2.4530   -0.6820   -1.0310 C   0  0  0  0  0  0  0  0  0  0  0  0
   -3.2470   -1.0120    0.2060 C   0  0  0  0  0  0  0  0  0  0  0  0
   -2.7230   -0.9550    1.2930 O   0  0  0  0  0  0  0  0  0  0  0  0
    1.7110    1.9890    1.4030 H   0  0  0  0  0  0  0  0  0  0  0  0
    2.5040    1.9220   -0.1920 H   0  0  0  0  0  0  0  0  0  0  0  0
    1.3450    4.1360    0.3340 H   0  0  0  0  0  0  0  0  0  0  0  0
    0.8160    3.3550   -1.1760 H   0  0  0  0  0  0  0  0  0  0  0  0
   -0.6130    2.9840    1.4900 H   0  0  0  0  0  0  0  0  0  0  0  0
   -1.0710    4.2260    0.3000 H   0  0  0  0  0  0  0  0  0  0  0  0
   -1.5750    2.5390   -1.3680 H   0  0  0  0  0  0  0  0  0  0  0  0
   -2.3850    2.0430    0.1400 H   0  0  0  0  0  0  0  0  0  0  0  0
   -2.9170    0.1580   -1.5480 H   0  0  0  0  0  0  0  0  0  0  0  0
   -2.4330   -1.5490   -1.6920 H   0  0  0  0  0  0  0  0  0  0  0  0
   -4.5370   -1.3690    0.1010 O   0  0  0  0  0  0  0  0  0  0  0  0
   -5.0050   -1.5710    0.9220 H   0  0  0  0  0  0  0  0  0  0  0  0
  1  2  1  0  0  0  0
  2  5  1  0  0  0  0
  2  3  1  0  0  0  0
  2  4  1  0  0  0  0
  5  9  1  0  0  0  0
  5  6  2  0  0  0  0
  6  7  1  0  0  0  0
  7 14  1  0  0  0  0
  7  8  1  0  0  0  0
  8 13  1  0  0  0  0
  8  9  2  0  0  0  0
  9 10  1  0  0  0  0
 10 11  1  0  0  0  0
 10 17  1  0  0  0  0
 10 18  1  0  0  0  0
 11 12  1  0  0  0  0
 11 19  1  0  0  0  0
 11 20  1  0  0  0  0
 12 13  1  0  0  0  0
 12 21  1  0  0  0  0
 12 22  1  0  0  0  0
 13 23  1  0  0  0  0
 13 24  1  0  0  0  0
 14 15  1  0  0  0  0
 14 25  1  0  0  0  0
 14 26  1  0  0  0  0
 15 16  2  0  0  0  0
 15 27  1  0  0  0  0
 27 28  1  0  0  0  0
M  END
> <OPENEYE_ISO_SMILES>
C1CCc2c(c(nn2CC(=O)O)C(F)(F)F)C1

> <OPENEYE_INCHI>
InChI=1S/C10H11F3N2O2/c11-10(12,13)9-6-3-1-2-4-7(6)15(14-9)5-8(16)17/h1-5H2,(H,16,17)

> <OPENEYE_INCHIKEY>
NOFFCWXIBYKMBU-UHFFFAOYSA-N

> <FORMULA>
C10H11F3N2O2

$$$$
