@<TRIPOS>MOLECULE
/home/pku/3cl/gett_pdb/5N5O/5N5O_mol2/ligand/5N5O_8O5.pdb
 39 42 0 0 0
SMALL
GASTEIGER

@<TRIPOS>ATOM
      1  C10      -27.6100    6.8940    3.8920 C.ar  401  8O5401      0.0000
      2  O01      -22.9980    2.0350    3.7700 O.2   401  8O5401     -0.2684
      3  C02      -24.1920    2.1100    4.1160 C.2   401  8O5401      0.2653
      4  C03      -25.0250    3.3260    4.0730 C.2   401  8O5401      0.0595
      5  C05      -24.6460    4.4670    3.5230 C.2   401  8O5401      0.0047
      6  C07      -25.5230    5.6830    3.5000 C.ar  401  8O5401      0.0001
      7  C16      -24.9230    6.8830    3.0630 C.ar  401  8O5401      0.0000
      8  C14      -25.6590    8.0710    3.0290 C.ar  401  8O5401      0.0000
      9  C12      -26.9980    8.0770    3.4450 C.ar  401  8O5401      0.0000
     10  C08      -26.8780    5.7000    3.9270 C.ar  401  8O5401      0.0000
     11  N18      -24.8660    1.0210    4.4760 N.am  401  8O5401     -0.1940
     12  C20      -24.1850   -0.2420    4.5040 C.3   401  8O5401      0.1730
     13  C22      -25.1320   -1.2750    5.0680 C.3   401  8O5401      0.0311
     14  C25      -25.6390   -0.8150    6.4240 C.3   401  8O5401      0.0022
     15  C26      -26.0240   -1.8710    7.4350 C.3   401  8O5401      0.0001
     16  C34      -24.7390   -1.0500    7.6460 C.3   401  8O5401      0.0001
     17  C36      -23.6190   -0.6590    3.1660 C.2   401  8O5401      0.2613
     18  O37      -24.2510   -0.4360    2.1530 O.2   401  8O5401     -0.2715
     19  N38      -22.4330   -1.2850    3.1600 N.am  401  8O5401     -0.2026
     20  C40      -21.8300   -1.8750    1.9980 C.3   401  8O5401      0.1351
     21  C42      -20.4840   -1.2180    1.6550 C.3   401  8O5401      0.0340
     22  C45      -20.6250    0.2560    1.3510 C.3   401  8O5401      0.0818
     23  C47      -19.2800    0.9390    1.1470 C.2   401  8O5401      0.2410
     24  O48      -18.4010    0.9350    1.9810 O.2   401  8O5401     -0.2734
     25  N49      -19.2750    1.7030    0.0460 N.am  401  8O5401     -0.2054
     26  C51      -20.5960    1.7950   -0.5660 C.3   401  8O5401      0.1156
     27  C54      -21.3320    0.5720    0.0190 C.3   401  8O5401      0.0326
     28  C57      -21.7520   -3.3450    2.3860 C.3   401  8O5401      0.2487
     29  O58      -23.0090   -3.8300    2.9020 O.3   401  8O5401     -0.2113
     30  C66      -21.5900   -4.1650    1.1360 C.2   401  8O5401      0.2739
     31  O67      -20.6600   -3.9900    0.3860 O.2   401  8O5401     -0.2705
     32  N68      -22.5770   -5.0190    0.8620 N.am  401  8O5401     -0.1984
     33  C70      -22.6610   -5.7930   -0.3660 C.3   401  8O5401      0.1415
     34  C73      -23.3130   -5.0430   -1.5040 C.ar  401  8O5401     -0.0006
     35  C74      -23.8580   -3.7640   -1.3520 C.ar  401  8O5401     -0.0026
     36  C76      -23.3500   -5.6670   -2.7600 C.ar  401  8O5401     -0.0026
     37  C78      -23.9400   -5.0170   -3.8540 C.ar  401  8O5401     -0.0003
     38  C80      -24.5050   -3.7470   -3.6860 C.ar  401  8O5401     -0.0000
     39  C82      -24.4590   -3.1230   -2.4240 C.ar  401  8O5401     -0.0003
@<TRIPOS>BOND
     1    37    38   ar
     2    37    36   ar
     3    38    39   ar
     4    36    34   ar
     5    39    35   ar
     6    34    35   ar
     7    34    33    1
     8    26    27    1
     9    26    25    1
    10    33    32    1
    11    27    22    1
    12    25    23   am
    13    31    30    2
    14    32    30   am
    15    30    28    1
    16    23    22    1
    17    23    24    2
    18    22    21    1
    19    21    20    1
    20    20    28    1
    21    20    19    1
    22    18    17    2
    23    28    29    1
    24     8     7   ar
    25     8     9   ar
    26     7     6   ar
    27    19    17   am
    28    17    12    1
    29     9     1   ar
    30     6     5    1
    31     6    10   ar
    32     5     4    2
    33     2     3    2
    34     1    10   ar
    35     4     3    1
    36     3    11   am
    37    11    12    1
    38    12    13    1
    39    13    14    1
    40    14    15    1
    41    14    16    1
    42    15    16    1
