URK
  -OEChem-02242320043D

 49 50  0     1  0  0  0  0  0999 V2000
    6.0330   -3.7210    0.2620 C   0  0  0  0  0  0  0  0  0  0  0  0
    5.4190   -2.6430   -0.2200 C   0  0  0  0  0  0  0  0  0  0  0  0
    4.0980   -2.2580    0.2960 C   0  0  0  0  0  0  0  0  0  0  0  0
    3.4760   -1.1660   -0.1920 O   0  0  0  0  0  0  0  0  0  0  0  0
    2.1730   -0.8460    0.3650 C   0  0  1  0  0  0  0  0  0  0  0  0
    1.9590    0.6450    0.3150 C   0  0  0  0  0  0  0  0  0  0  0  0
    1.3490    1.2910    1.3750 C   0  0  0  0  0  0  0  0  0  0  0  0
    1.1520    2.6580    1.3290 C   0  0  0  0  0  0  0  0  0  0  0  0
    1.5640    3.3800    0.2240 C   0  0  0  0  0  0  0  0  0  0  0  0
    1.3520    4.8440    0.1750 N   0  3  0  0  0  0  0  0  0  0  0  0
    0.8150    5.4130    1.1080 O   0  0  0  0  0  0  0  0  0  0  0  0
    1.7150    5.4790   -0.7990 O   0  5  0  0  0  0  0  0  0  0  0  0
    2.1740    2.7340   -0.8350 C   0  0  0  0  0  0  0  0  0  0  0  0
    2.3760    1.3670   -0.7870 C   0  0  0  0  0  0  0  0  0  0  0  0
    1.1010   -1.5350   -0.4390 C   0  0  0  0  0  0  0  0  0  0  0  0
   -0.1860   -1.4640   -0.0450 N   0  0  0  0  0  0  0  0  0  0  0  0
   -1.2290   -2.1340   -0.8260 C   0  0  0  0  0  0  0  0  0  0  0  0
   -2.5700   -1.9020   -0.1770 C   0  0  0  0  0  0  0  0  0  0  0  0
   -3.2380   -0.7050   -0.3760 C   0  0  0  0  0  0  0  0  0  0  0  0
   -2.6860    0.2620   -1.1570 O   0  0  0  0  0  0  0  0  0  0  0  0
   -3.0020    0.2310   -2.5500 C   0  0  0  0  0  0  0  0  0  0  0  0
   -4.4760   -0.4950    0.2240 C   0  0  0  0  0  0  0  0  0  0  0  0
   -5.1360    0.6790    0.0310 O   0  0  0  0  0  0  0  0  0  0  0  0
   -6.4020    0.8250    0.6780 C   0  0  0  0  0  0  0  0  0  0  0  0
   -5.0340   -1.4830    1.0180 C   0  0  0  0  0  0  0  0  0  0  0  0
   -4.3620   -2.6760    1.2120 C   0  0  0  0  0  0  0  0  0  0  0  0
   -3.1350   -2.8870    0.6120 C   0  0  0  0  0  0  0  0  0  0  0  0
    1.3950   -2.1530   -1.4400 O   0  0  0  0  0  0  0  0  0  0  0  0
    3.5660   -2.9240    1.1630 O   0  0  0  0  0  0  0  0  0  0  0  0
    5.5610   -4.3120    1.0320 H   0  0  0  0  0  0  0  0  0  0  0  0
    7.0020   -4.0060   -0.1210 H   0  0  0  0  0  0  0  0  0  0  0  0
    5.8910   -2.0510   -0.9900 H   0  0  0  0  0  0  0  0  0  0  0  0
    2.1270   -1.1860    1.4000 H   0  0  0  0  0  0  0  0  0  0  0  0
    1.0270    0.7270    2.2380 H   0  0  0  0  0  0  0  0  0  0  0  0
    0.6750    3.1630    2.1560 H   0  0  0  0  0  0  0  0  0  0  0  0
    2.4960    3.2970   -1.6980 H   0  0  0  0  0  0  0  0  0  0  0  0
    2.8530    0.8620   -1.6140 H   0  0  0  0  0  0  0  0  0  0  0  0
   -0.4220   -0.9700    0.7560 H   0  0  0  0  0  0  0  0  0  0  0  0
   -1.2410   -1.7300   -1.8390 H   0  0  0  0  0  0  0  0  0  0  0  0
   -1.0240   -3.2040   -0.8640 H   0  0  0  0  0  0  0  0  0  0  0  0
   -2.4980    1.0540   -3.0560 H   0  0  0  0  0  0  0  0  0  0  0  0
   -2.6690   -0.7150   -2.9770 H   0  0  0  0  0  0  0  0  0  0  0  0
   -4.0800    0.3290   -2.6810 H   0  0  0  0  0  0  0  0  0  0  0  0
   -6.8190    1.8040    0.4420 H   0  0  0  0  0  0  0  0  0  0  0  0
   -7.0800    0.0460    0.3290 H   0  0  0  0  0  0  0  0  0  0  0  0
   -6.2710    0.7360    1.7570 H   0  0  0  0  0  0  0  0  0  0  0  0
   -5.9950   -1.3220    1.4850 H   0  0  0  0  0  0  0  0  0  0  0  0
   -4.7990   -3.4450    1.8310 H   0  0  0  0  0  0  0  0  0  0  0  0
   -2.6130   -3.8190    0.7660 H   0  0  0  0  0  0  0  0  0  0  0  0
 10 12  1  0  0  0  0
 10 11  2  0  0  0  0
  9 10  1  0  0  0  0
  9 13  2  0  0  0  0
 13 14  1  0  0  0  0
  8  9  1  0  0  0  0
 25 26  2  0  0  0  0
 26 27  1  0  0  0  0
 22 25  1  0  0  0  0
  6 14  2  0  0  0  0
 18 27  2  0  0  0  0
  7  8  2  0  0  0  0
 22 23  1  0  0  0  0
 19 22  2  0  0  0  0
  6  7  1  0  0  0  0
  5  6  1  0  0  0  0
 18 19  1  0  0  0  0
 17 18  1  0  0  0  0
 23 24  1  0  0  0  0
 15 16  1  0  0  0  0
 16 17  1  0  0  0  0
 15 28  2  0  0  0  0
 19 20  1  0  0  0  0
  5 15  1  0  0  0  0
  4  5  1  0  0  0  0
 20 21  1  0  0  0  0
  3  4  1  0  0  0  0
  3 29  2  0  0  0  0
  2  3  1  0  0  0  0
  1  2  2  0  0  0  0
  1 30  1  0  0  0  0
  1 31  1  0  0  0  0
  2 32  1  0  0  0  0
  5 33  1  0  0  0  0
  7 34  1  0  0  0  0
  8 35  1  0  0  0  0
 13 36  1  0  0  0  0
 14 37  1  0  0  0  0
 16 38  1  0  0  0  0
 17 39  1  0  0  0  0
 17 40  1  0  0  0  0
 21 41  1  0  0  0  0
 21 42  1  0  0  0  0
 21 43  1  0  0  0  0
 24 44  1  0  0  0  0
 24 45  1  0  0  0  0
 24 46  1  0  0  0  0
 25 47  1  0  0  0  0
 26 48  1  0  0  0  0
 27 49  1  0  0  0  0
M  CHG  2  10   1  12  -1
M  END
> <OPENEYE_ISO_SMILES>
COc1cccc(c1OC)CNC(=O)[C@H](c2ccc(cc2)[N+](=O)[O-])OC(=O)C=C

> <OPENEYE_INCHI>
InChI=1S/C20H20N2O7/c1-4-17(23)29-19(13-8-10-15(11-9-13)22(25)26)20(24)21-12-14-6-5-7-16(27-2)18(14)28-3/h4-11,19H,1,12H2,2-3H3,(H,21,24)/t19-/m0/s1

> <OPENEYE_INCHIKEY>
KRUSHXMEHBIKCV-IBGZPJMESA-N

> <FORMULA>
C20H20N2O7

$$$$
