FZI
  -OEChem-02242320023D

 76 77  0     1  0  0  0  0  0999 V2000
    2.3290   -0.1340    0.3150 C   0  0  0  0  0  0  0  0  0  0  0  0
    1.2400    0.7560    0.8560 C   0  0  2  0  0  0  0  0  0  0  0  0
    1.5540    1.1200    2.3080 C   0  0  0  0  0  0  0  0  0  0  0  0
    0.5160    2.1220    2.8190 C   0  0  0  0  0  0  0  0  0  0  0  0
    0.7540    2.3910    4.3060 C   0  0  0  0  0  0  0  0  0  0  0  0
    0.6440    3.4310    2.0370 C   0  0  0  0  0  0  0  0  0  0  0  0
   -1.1930    0.7500    0.7320 C   0  0  0  0  0  0  0  0  0  0  0  0
   -3.5710    0.9180    0.6110 C   0  0  0  0  0  0  0  0  0  0  0  0
   -4.8020    0.0120    0.5530 C   0  0  0  0  0  0  0  0  0  0  0  0
   -5.2580   -0.3410   -0.8690 C   0  0  0  0  0  0  0  0  0  0  0  0
    5.3490   -1.2820    0.9200 C   0  0  1  0  0  0  0  0  0  0  0  0
    4.6630   -0.5620   -0.2430 C   0  0  2  0  0  0  0  0  0  0  0  0
    5.6910    0.2850   -0.9960 C   0  0  0  0  0  0  0  0  0  0  0  0
    5.0430    0.8780   -2.2490 C   0  0  1  0  0  0  0  0  0  0  0  0
    4.1100    2.0140   -1.8800 C   0  0  0  0  0  0  0  0  0  0  0  0
    5.7570    2.8130   -3.2030 C   0  0  0  0  0  0  0  0  0  0  0  0
    6.0860    1.5410   -3.1250 C   0  0  0  0  0  0  0  0  0  0  0  0
   -7.8500   -0.6650   -0.7630 C   0  0  0  0  0  0  0  0  0  0  0  0
  -10.2180   -0.8480   -0.5320 C   0  0  0  0  0  0  0  0  0  0  0  0
  -10.1660   -2.3710   -0.3930 C   0  0  0  0  0  0  0  0  0  0  0  0
  -10.4690   -0.4780   -1.9960 C   0  0  0  0  0  0  0  0  0  0  0  0
  -11.3520   -0.2950    0.3340 C   0  0  0  0  0  0  0  0  0  0  0  0
   -6.1400    0.7640    0.6040 C   0  0  0  0  0  0  0  0  0  0  0  0
    4.6120    3.1090   -2.4870 N   0  0  0  0  0  0  0  0  0  0  0  0
    3.6030    0.3060    0.2780 N   0  0  0  0  0  0  0  0  0  0  0  0
   -0.0420    0.0510    0.7940 N   0  0  0  0  0  0  0  0  0  0  0  0
   -6.6450   -0.1740   -0.4100 N   0  0  0  0  0  0  0  0  0  0  0  0
    4.3670   -1.9630    1.7040 O   0  0  0  0  0  0  0  0  0  0  0  0
    3.1190    1.9520   -1.1850 O   0  0  0  0  0  0  0  0  0  0  0  0
   -2.3720    0.1010    0.6760 O   0  0  0  0  0  0  0  0  0  0  0  0
   -8.9550   -0.2780   -0.0980 O   0  0  0  0  0  0  0  0  0  0  0  0
   -7.9390   -1.4560   -1.6810 O   0  0  0  0  0  0  0  0  0  0  0  0
   -1.1670    1.9640    0.7270 O   0  0  0  0  0  0  0  0  0  0  0  0
    2.0610   -1.2480   -0.0830 O   0  0  0  0  0  0  0  0  0  0  0  0
    1.1840    1.6660    0.2570 H   0  0  0  0  0  0  0  0  0  0  0  0
    1.5230    0.2200    2.9230 H   0  0  0  0  0  0  0  0  0  0  0  0
    2.5470    1.5650    2.3650 H   0  0  0  0  0  0  0  0  0  0  0  0
   -0.4840    1.7120    2.6790 H   0  0  0  0  0  0  0  0  0  0  0  0
    1.7550    2.8010    4.4450 H   0  0  0  0  0  0  0  0  0  0  0  0
    0.0150    3.1050    4.6690 H   0  0  0  0  0  0  0  0  0  0  0  0
    0.6630    1.4580    4.8630 H   0  0  0  0  0  0  0  0  0  0  0  0
    0.4740    3.2400    0.9770 H   0  0  0  0  0  0  0  0  0  0  0  0
   -0.0950    4.1450    2.4000 H   0  0  0  0  0  0  0  0  0  0  0  0
    1.6440    3.8410    2.1760 H   0  0  0  0  0  0  0  0  0  0  0  0
   -3.5370    1.5420   -0.2820 H   0  0  0  0  0  0  0  0  0  0  0  0
   -3.6270    1.5520    1.4950 H   0  0  0  0  0  0  0  0  0  0  0  0
   -4.7430   -0.8400    1.2310 H   0  0  0  0  0  0  0  0  0  0  0  0
   -4.9570    0.3930   -1.6160 H   0  0  0  0  0  0  0  0  0  0  0  0
   -5.0180   -1.3630   -1.1610 H   0  0  0  0  0  0  0  0  0  0  0  0
    5.8700   -0.5540    1.5420 H   0  0  0  0  0  0  0  0  0  0  0  0
    4.2300   -1.2970   -0.9210 H   0  0  0  0  0  0  0  0  0  0  0  0
    6.0400    1.0910   -0.3520 H   0  0  0  0  0  0  0  0  0  0  0  0
    6.5350   -0.3410   -1.2850 H   0  0  0  0  0  0  0  0  0  0  0  0
    4.5100    0.1070   -2.8050 H   0  0  0  0  0  0  0  0  0  0  0  0
    6.3190    3.5450   -3.7650 H   0  0  0  0  0  0  0  0  0  0  0  0
    6.9340    1.0640   -3.5930 H   0  0  0  0  0  0  0  0  0  0  0  0
   -9.9880   -2.6340    0.6500 H   0  0  0  0  0  0  0  0  0  0  0  0
  -11.1140   -2.7980   -0.7190 H   0  0  0  0  0  0  0  0  0  0  0  0
   -9.3590   -2.7640   -1.0100 H   0  0  0  0  0  0  0  0  0  0  0  0
  -11.4170   -0.9050   -2.3220 H   0  0  0  0  0  0  0  0  0  0  0  0
  -10.5060    0.6070   -2.0950 H   0  0  0  0  0  0  0  0  0  0  0  0
   -9.6610   -0.8720   -2.6130 H   0  0  0  0  0  0  0  0  0  0  0  0
  -11.1740   -0.5580    1.3770 H   0  0  0  0  0  0  0  0  0  0  0  0
  -11.3890    0.7900    0.2350 H   0  0  0  0  0  0  0  0  0  0  0  0
  -12.3000   -0.7220    0.0080 H   0  0  0  0  0  0  0  0  0  0  0  0
   -6.6480    0.6810    1.5640 H   0  0  0  0  0  0  0  0  0  0  0  0
   -6.0730    1.7930    0.2500 H   0  0  0  0  0  0  0  0  0  0  0  0
    4.2190    3.9930   -2.4280 H   0  0  0  0  0  0  0  0  0  0  0  0
    3.8180    1.1970    0.5960 H   0  0  0  0  0  0  0  0  0  0  0  0
   -0.0630   -0.9190    0.7990 H   0  0  0  0  0  0  0  0  0  0  0  0
    3.6960   -1.3810    2.0850 H   0  0  0  0  0  0  0  0  0  0  0  0
    6.5410   -2.4830    0.2670 S   0  0  0  0  0  0  0  0  0  0  0  0
    7.1850   -3.1740    1.3290 O   0  0  0  0  0  0  0  0  0  0  0  0
    5.9870   -3.1870   -0.8360 O   0  0  0  0  0  0  0  0  0  0  0  0
    7.6420   -1.6300   -0.3470 O   0  0  0  0  0  0  0  0  0  0  0  0
    8.3610   -2.1410   -0.7420 H   0  0  0  0  0  0  0  0  0  0  0  0
 19 22  1  0  0  0  0
  4  6  1  0  0  0  0
 19 21  1  0  0  0  0
 19 20  1  0  0  0  0
 19 31  1  0  0  0  0
  4  5  1  0  0  0  0
  3  4  1  0  0  0  0
 18 31  1  0  0  0  0
  2  3  1  0  0  0  0
 18 27  1  0  0  0  0
 18 32  2  0  0  0  0
 10 27  1  0  0  0  0
  9 10  1  0  0  0  0
  2 26  1  0  0  0  0
  7 26  1  0  0  0  0
 23 27  1  0  0  0  0
  1  2  1  0  0  0  0
  8  9  1  0  0  0  0
  8 30  1  0  0  0  0
  9 23  1  0  0  0  0
  7 30  1  0  0  0  0
  7 33  2  0  0  0  0
  1 34  2  0  0  0  0
  1 25  1  0  0  0  0
 12 25  1  0  0  0  0
 11 12  1  0  0  0  0
 12 13  1  0  0  0  0
 11 28  1  0  0  0  0
 14 17  1  0  0  0  0
 13 14  1  0  0  0  0
 14 15  1  0  0  0  0
 16 17  2  0  0  0  0
 15 29  2  0  0  0  0
 15 24  1  0  0  0  0
 16 24  1  0  0  0  0
  2 35  1  0  0  0  0
  3 36  1  0  0  0  0
  3 37  1  0  0  0  0
  4 38  1  0  0  0  0
  5 39  1  0  0  0  0
  5 40  1  0  0  0  0
  5 41  1  0  0  0  0
  6 42  1  0  0  0  0
  6 43  1  0  0  0  0
  6 44  1  0  0  0  0
  8 45  1  0  0  0  0
  8 46  1  0  0  0  0
  9 47  1  0  0  0  0
 10 48  1  0  0  0  0
 10 49  1  0  0  0  0
 11 50  1  0  0  0  0
 12 51  1  0  0  0  0
 13 52  1  0  0  0  0
 13 53  1  0  0  0  0
 14 54  1  0  0  0  0
 16 55  1  0  0  0  0
 17 56  1  0  0  0  0
 20 57  1  0  0  0  0
 20 58  1  0  0  0  0
 20 59  1  0  0  0  0
 21 60  1  0  0  0  0
 21 61  1  0  0  0  0
 21 62  1  0  0  0  0
 22 63  1  0  0  0  0
 22 64  1  0  0  0  0
 22 65  1  0  0  0  0
 23 66  1  0  0  0  0
 23 67  1  0  0  0  0
 24 68  1  0  0  0  0
 25 69  1  0  0  0  0
 26 70  1  0  0  0  0
 28 71  1  0  0  0  0
 11 72  1  0  0  0  0
 72 73  2  0  0  0  0
 72 74  2  0  0  0  0
 72 75  1  0  0  0  0
 75 76  1  0  0  0  0
M  END
> <OPENEYE_ISO_SMILES>
CC(C)C[C@@H](C(=O)N[C@@H](C[C@@H]1C=CNC1=O)[C@@H](O)S(=O)(=O)O)NC(=O)OCC2CN(C2)C(=O)OC(C)(C)C

> <OPENEYE_INCHI>
InChI=1S/C23H38N4O10S/c1-13(2)8-16(26-21(31)36-12-14-10-27(11-14)22(32)37-23(3,4)5)19(29)25-17(20(30)38(33,34)35)9-15-6-7-24-18(15)28/h6-7,13-17,20,30H,8-12H2,1-5H3,(H,24,28)(H,25,29)(H,26,31)(H,33,34,35)/t15-,16-,17-,20-/m0/s1

> <OPENEYE_INCHIKEY>
WDYXMIZDWOFVQK-BOSXTWCSSA-N

> <FORMULA>
C23H38N4O10S

$$$$
