@<TRIPOS>MOLECULE
/home/pku/3cl/gett_pdb/7V1T/7V1T_mol2/ligand/7V1T_5IL.pdb
 29 32 0 0 0
SMALL
GASTEIGER

@<TRIPOS>ATOM
      1  C1       112.1700  -18.0880   67.5770 C.ar  401  5IL401      0.0015
      2  C2       113.0940  -17.7880   68.5760 C.ar  401  5IL401      0.0201
      3  C3       114.2450  -16.9950   68.2890 C.ar  401  5IL401      0.1282
      4  C4       114.4580  -16.4870   66.9170 C.ar  401  5IL401      0.0620
      5  C5       113.5330  -16.7940   65.9450 C.ar  401  5IL401      0.0434
      6  C6       112.3720  -17.5960   66.2480 C.ar  401  5IL401      0.0034
      7  C7       115.6190  -15.6740   66.5700 C.ar  401  5IL401      0.2122
      8  C8       115.7880  -15.1870   65.2060 C.ar  401  5IL401      0.1125
      9  C10      113.7100  -16.2990   64.5520 C.ar  401  5IL401      0.1972
     10  C16      117.5940  -13.3410   65.6140 C.ar  401  5IL401      0.0838
     11  C17      119.0100  -13.1780   65.4870 C.ar  401  5IL401      0.0178
     12  C18      119.6870  -12.2120   66.2390 C.ar  401  5IL401      0.0014
     13  C19      118.9670  -11.3840   67.1410 C.ar  401  5IL401      0.0014
     14  C20      117.5680  -11.5380   67.2710 C.ar  401  5IL401      0.0158
     15  C21      116.8830  -12.5100   66.5090 C.ar  401  5IL401      0.0634
     16  C23      114.5720  -11.7520   65.8380 C.3   401  5IL401      0.1096
     17  C24      113.0900  -12.0950   65.9780 C.3   401  5IL401      0.1101
     18  C26      113.4290  -12.9050   68.1890 C.3   401  5IL401      0.1101
     19  C27      114.9130  -12.5740   68.0990 C.3   401  5IL401      0.1096
     20  C9       114.8330  -15.5130   64.2220 C.ar  401  5IL401      0.0618
     21  N15      116.9480  -14.3580   64.7950 N.pl3 401  5IL401     -0.2079
     22  N22      115.4530  -12.6160   66.6820 N.pl3 401  5IL401     -0.3035
     23  N25      112.6450  -12.0780   67.3450 N.3   401  5IL401     -0.2144
     24  N29      114.8570  -17.4730   71.0870 N.3   401  5IL401      0.0392
     25  O12      116.9600  -17.2060   69.3170 O.2   401  5IL401     -0.1503
     26  O13      115.4640  -15.0610   69.9890 O.2   401  5IL401     -0.1503
     27  O14      112.7730  -16.6130   63.5900 O.3   401  5IL401     -0.2865
     28  O28      116.5690  -15.3540   67.5520 O.3   401  5IL401     -0.2851
     29  S11      115.4130  -16.6510   69.6800 S.O2  401  5IL401      0.0936
@<TRIPOS>BOND
     1    27     9    1
     2    20     9   ar
     3    20     8   ar
     4     9     5   ar
     5    21     8    1
     6    21    10    1
     7     8     7   ar
     8    11    10   ar
     9    11    12   ar
    10    10    15   ar
    11    16    17    1
    12    16    22    1
    13     5     6   ar
    14     5     4   ar
    15    17    23    1
    16    12    13   ar
    17     6     1   ar
    18    15    22    1
    19    15    14   ar
    20     7     4   ar
    21     7    28    1
    22    22    19    1
    23     4     3   ar
    24    13    14   ar
    25    23    18    1
    26     1     2   ar
    27    19    18    1
    28     3     2   ar
    29     3    29    1
    30    25    29    2
    31    29    26    2
    32    29    24    1
