RL5
  -OEChem-02242320043D

 36 37  0     0  0  0  0  0  0999 V2000
   -4.2440   -0.4910   -0.5730 C   0  0  0  0  0  0  0  0  0  0  0  0
   -5.4700   -0.2540   -0.0240 C   0  0  0  0  0  0  0  0  0  0  0  0
   -4.0900   -0.5740    1.6110 C   0  0  0  0  0  0  0  0  0  0  0  0
   -1.9540   -0.9810    0.3410 C   0  0  0  0  0  0  0  0  0  0  0  0
   -1.1670    0.3310    0.3350 C   0  0  0  0  0  0  0  0  0  0  0  0
   -6.7150    0.0180   -0.7610 C   0  0  0  0  0  0  0  0  0  0  0  0
    8.4680   -1.1500   -0.4080 C   0  0  0  0  0  0  0  0  0  0  0  0
    7.3280   -0.1360   -0.2910 C   0  0  0  0  0  0  0  0  0  0  0  0
    4.8720   -0.1370   -0.1070 C   0  0  0  0  0  0  0  0  0  0  0  0
    3.5940    1.6840    0.0450 C   0  0  0  0  0  0  0  0  0  0  0  0
    2.5860    0.7610    0.0820 C   0  0  0  0  0  0  0  0  0  0  0  0
    1.1570    1.0510    0.1960 C   0  0  0  0  0  0  0  0  0  0  0  0
    6.0490   -0.8460   -0.2180 N   0  0  0  0  0  0  0  0  0  0  0  0
    4.7900    1.1620   -0.0600 N   0  0  0  0  0  0  0  0  0  0  0  0
    0.2640    0.0410    0.2210 N   0  0  0  0  0  0  0  0  0  0  0  0
   -3.3860   -0.6910    0.4550 N   0  0  0  0  0  0  0  0  0  0  0  0
   -5.3330   -0.3140    1.3260 N   0  0  0  0  0  0  0  0  0  0  0  0
    0.7730    2.2040    0.2670 O   0  0  0  0  0  0  0  0  0  0  0  0
   -7.8630    0.2360   -0.0880 O   0  0  0  0  0  0  0  0  0  0  0  0
   -6.7090    0.0450   -1.9760 O   0  0  0  0  0  0  0  0  0  0  0  0
    3.3160   -0.8390   -0.0200 S   0  0  0  0  0  0  0  0  0  0  0  0
   -4.0040   -0.5190   -1.6250 H   0  0  0  0  0  0  0  0  0  0  0  0
   -3.6840   -0.6810    2.6060 H   0  0  0  0  0  0  0  0  0  0  0  0
   -1.7660   -1.5220   -0.5860 H   0  0  0  0  0  0  0  0  0  0  0  0
   -1.6380   -1.5900    1.1880 H   0  0  0  0  0  0  0  0  0  0  0  0
   -1.4830    0.9400   -0.5120 H   0  0  0  0  0  0  0  0  0  0  0  0
   -1.3550    0.8720    1.2620 H   0  0  0  0  0  0  0  0  0  0  0  0
    8.3320   -1.7470   -1.3100 H   0  0  0  0  0  0  0  0  0  0  0  0
    9.4200   -0.6210   -0.4630 H   0  0  0  0  0  0  0  0  0  0  0  0
    8.4650   -1.8030    0.4640 H   0  0  0  0  0  0  0  0  0  0  0  0
    7.4640    0.4610    0.6100 H   0  0  0  0  0  0  0  0  0  0  0  0
    7.3310    0.5170   -1.1640 H   0  0  0  0  0  0  0  0  0  0  0  0
    3.4190    2.7480    0.0910 H   0  0  0  0  0  0  0  0  0  0  0  0
    6.0300   -1.8160   -0.2470 H   0  0  0  0  0  0  0  0  0  0  0  0
    0.5700   -0.8780    0.1640 H   0  0  0  0  0  0  0  0  0  0  0  0
   -8.6550    0.4100   -0.6150 H   0  0  0  0  0  0  0  0  0  0  0  0
  6 20  2  0  0  0  0
  6 19  1  0  0  0  0
  2  6  1  0  0  0  0
  1  2  2  0  0  0  0
  1 16  1  0  0  0  0
  2 17  1  0  0  0  0
  4 16  1  0  0  0  0
  3 16  1  0  0  0  0
  4  5  1  0  0  0  0
 12 18  2  0  0  0  0
  3 17  2  0  0  0  0
  5 15  1  0  0  0  0
 12 15  1  0  0  0  0
 11 12  1  0  0  0  0
 11 21  1  0  0  0  0
  9 21  1  0  0  0  0
 10 11  2  0  0  0  0
 10 14  1  0  0  0  0
  9 14  2  0  0  0  0
  9 13  1  0  0  0  0
  8 13  1  0  0  0  0
  7  8  1  0  0  0  0
  1 22  1  0  0  0  0
  3 23  1  0  0  0  0
  4 24  1  0  0  0  0
  4 25  1  0  0  0  0
  5 26  1  0  0  0  0
  5 27  1  0  0  0  0
  7 28  1  0  0  0  0
  7 29  1  0  0  0  0
  7 30  1  0  0  0  0
  8 31  1  0  0  0  0
  8 32  1  0  0  0  0
 10 33  1  0  0  0  0
 13 34  1  0  0  0  0
 15 35  1  0  0  0  0
 19 36  1  0  0  0  0
M  END
> <OPENEYE_ISO_SMILES>
CCNc1ncc(s1)C(=O)NCCn2cc(nc2)C(=O)O

> <OPENEYE_INCHI>
InChI=1S/C12H15N5O3S/c1-2-13-12-15-5-9(21-12)10(18)14-3-4-17-6-8(11(19)20)16-7-17/h5-7H,2-4H2,1H3,(H,13,15)(H,14,18)(H,19,20)

> <OPENEYE_INCHIKEY>
XUTVGWPXCMPLPZ-UHFFFAOYSA-N

> <FORMULA>
C12H15N5O3S

$$$$
