@<TRIPOS>MOLECULE
/home/pku/3cl/gett_pdb/5SQ5/5SQ5_mol2/ligand/5SQ5_QKL.pdb
 48 51 0 0 0
SMALL
GASTEIGER

@<TRIPOS>ATOM
      1  C18      -53.7630  -30.1020   11.1960 C.3   201  QKL201     -0.0328
      2  C17      -53.4880  -29.2430    9.9630 C.3   201  QKL201      0.0247
      3  C15      -51.7360  -29.1100    8.1510 C.2   201  QKL201      0.3041
      4  C13      -49.6660  -29.0250    6.6310 C.ar  201  QKL201      0.0348
      5  C12      -48.2820  -29.0810    6.6420 C.ar  201  QKL201     -0.0397
      6  C11      -47.5920  -29.0800    5.4440 C.ar  201  QKL201     -0.0479
      7  C10      -48.2980  -29.0230    4.2450 C.ar  201  QKL201      0.0368
      8  C19      -54.1410  -30.6190    9.8070 C.3   201  QKL201     -0.0328
      9  C02      -43.4660  -30.7770    2.6970 C.2   201  QKL201      0.0472
     10  C03      -43.7870  -29.3040    2.4310 C.3   201  QKL201      0.0251
     11  C04      -42.9240  -28.7570    1.3390 C.3   201  QKL201     -0.0174
     12  C05      -43.8160  -27.7190    0.6490 C.ar  201  QKL201     -0.0417
     13  C06      -45.1520  -27.9610    0.9610 C.ar  201  QKL201     -0.0234
     14  C07      -45.1910  -29.2030    1.8790 C.3   201  QKL201      0.0571
     15  C09      -47.5180  -29.0430    2.9140 C.2   201  QKL201      0.2445
     16  C21      -50.3860  -29.0000    5.4430 C.ar  201  QKL201     -0.0397
     17  C22      -49.6880  -28.9930    4.2430 C.ar  201  QKL201     -0.0479
     18  C24      -46.1590  -27.1430    0.4330 C.ar  201  QKL201     -0.0565
     19  C25      -45.8120  -26.0810   -0.3940 C.ar  201  QKL201     -0.0614
     20  C26      -44.4710  -25.8470   -0.6930 C.ar  201  QKL201     -0.0615
     21  C27      -43.4680  -26.6550   -0.1830 C.ar  201  QKL201     -0.0582
     22  N08      -46.0570  -29.1330    3.0120 N.am  201  QKL201     -0.3039
     23  N14      -50.3020  -29.0750    7.9340 N.am  201  QKL201     -0.2695
     24  N16      -52.0960  -29.2060    9.5530 N.am  201  QKL201     -0.2963
     25  O01      -43.0310  -31.1480    3.8230 O.co2 201  QKL201     -0.5495
     26  O20      -52.5500  -29.0480    7.2890 O.2   201  QKL201     -0.2525
     27  O23      -48.0860  -29.0170    1.8710 O.2   201  QKL201     -0.2702
     28  O28      -43.6510  -31.6320    1.7830 O.co2 201  QKL201     -0.5495
     29 H181      -54.5860  -29.7670   11.8160 H     201  QKL201      0.0284
     30 H182      -52.8850  -30.5610   11.6500 H     201  QKL201      0.0284
     31 H171      -54.1350  -28.3900    9.8000 H     201  QKL201      0.0499
     32 H121      -47.7490  -29.1250    7.5950 H     201  QKL201      0.0636
     33 H111      -46.5050  -29.1180    5.4540 H     201  QKL201      0.0626
     34 H191      -55.2010  -30.6070    9.5720 H     201  QKL201      0.0284
     35 H192      -53.4980  -31.4020    9.4050 H     201  QKL201      0.0284
     36 H031      -43.6950  -28.6870    3.3320 H     201  QKL201      0.0385
     37 H042      -42.6700  -29.5570    0.6420 H     201  QKL201      0.0320
     38 H041      -42.0510  -28.2670    1.7690 H     201  QKL201      0.0320
     39 H071      -45.4250  -30.0840    1.2900 H     201  QKL201      0.0555
     40 H211      -51.4790  -28.9770    5.4480 H     201  QKL201      0.0636
     41 H221      -50.2290  -28.9710    3.3040 H     201  QKL201      0.0626
     42 H241      -47.2030  -27.3350    0.6700 H     201  QKL201      0.0621
     43 H251      -46.5840  -25.4380   -0.8080 H     201  QKL201      0.0618
     44 H261      -44.2030  -25.0240   -1.3330 H     201  QKL201      0.0618
     45 H271      -42.4260  -26.4580   -0.4260 H     201  QKL201      0.0620
     46 H081      -45.6360  -29.1690    3.9220 H     201  QKL201      0.1496
     47 H141      -49.7140  -29.1500    8.7400 H     201  QKL201      0.1564
     48 H161      -51.3630  -29.2500   10.2310 H     201  QKL201      0.1505
@<TRIPOS>UNITY_ATOM_ATTR
25 1
charge -1
@<TRIPOS>BOND
     1    44    20    1
     2    43    19    1
     3    20    19   ar
     4    20    21   ar
     5    45    21    1
     6    19    18   ar
     7    21    12   ar
     8    18    42    1
     9    18    13   ar
    10    37    11    1
    11    12    13   ar
    12    12    11    1
    13    13    14    1
    14    39    14    1
    15    11    38    1
    16    11    10    1
    17    28     9   ar
    18    27    15    2
    19    14    10    1
    20    14    22    1
    21    10     9    1
    22    10    36    1
    23     9    25   ar
    24    15    22   am
    25    15     7    1
    26    22    46    1
    27    41    17    1
    28    17     7   ar
    29    17    16   ar
    30     7     6   ar
    31    16    40    1
    32    16     4   ar
    33     6    33    1
    34     6     5   ar
    35     4     5   ar
    36     4    23    1
    37     5    32    1
    38    26     3    2
    39    23     3   am
    40    23    47    1
    41     3    24   am
    42    35     8    1
    43    24     2    1
    44    24    48    1
    45    34     8    1
    46    31     2    1
    47     8     2    1
    48     8     1    1
    49     2     1    1
    50     1    30    1
    51     1    29    1
