@<TRIPOS>MOLECULE
/home/pku/3cl/gett_pdb/7AT9/7AT9_mol2/ligand/7AT9_42J.pdb
 20 20 0 0 0
SMALL
GASTEIGER

@<TRIPOS>ATOM
      1 CL1         9.2740    0.5110  -13.5540 Cl    501  42J501     -0.0820
      2  C6        10.6570   -0.5450  -13.6370 C.ar  501  42J501      0.0595
      3  C5        11.8340   -0.1220  -14.2340 C.ar  501  42J501      0.0593
      4 CL         12.0490    1.5050  -14.7990 Cl    501  42J501     -0.0820
      5  C4        12.8830   -1.0110  -14.3300 C.ar  501  42J501     -0.0417
      6  C3        12.7540   -2.2960  -13.8370 C.ar  501  42J501     -0.0571
      7  C7        10.5370   -1.8350  -13.1500 C.ar  501  42J501     -0.0387
      8  C2        11.5960   -2.7250  -13.2260 C.ar  501  42J501     -0.0447
      9  C1        11.4910   -4.1390  -12.7050 C.3   501  42J501     -0.0153
     10  C         11.3950   -5.1750  -13.7900 C.3   501  42J501     -0.0029
     11  N         11.2810   -6.5250  -13.2260 N.3   501  42J501     -0.3297
     12  H1        13.6870   -0.7390  -14.7320 H     501  42J501      0.0633
     13  H2        13.4770   -2.8960  -13.9220 H     501  42J501      0.0621
     14  H3         9.7280   -2.1080  -12.7640 H     501  42J501      0.0635
     15  H4        10.6980   -4.2090  -12.1320 H     501  42J501      0.0325
     16  H5        12.2790   -4.3340  -12.1540 H     501  42J501      0.0325
     17  H6        12.1920   -5.1290  -14.3610 H     501  42J501      0.0425
     18  H7        10.6100   -4.9910  -14.3510 H     501  42J501      0.0425
     19  H8        12.0190   -6.7350  -12.7940 H     501  42J501      0.1182
     20  H9        10.6270   -6.5490  -12.6320 H     501  42J501      0.1182
@<TRIPOS>BOND
     1     4     3    1
     2    12     5    1
     3    17    10    1
     4    18    10    1
     5     5     3   ar
     6     5     6   ar
     7     3     2   ar
     8    13     6    1
     9     6     8   ar
    10    10    11    1
    11    10     9    1
    12     2     1    1
    13     2     7   ar
    14    11    19    1
    15    11    20    1
    16     8     7   ar
    17     8     9    1
    18     7    14    1
    19     9    16    1
    20     9    15    1
