UGS
  -OEChem-02242320043D

 38 40  0     0  0  0  0  0  0999 V2000
    1.7230    1.2540    0.4780 N   0  0  0  0  0  0  0  0  0  0  0  0
    2.7630    0.4010    0.1110 C   0  0  0  0  0  0  0  0  0  0  0  0
    0.4480    0.9220    0.1950 C   0  0  0  0  0  0  0  0  0  0  0  0
   -0.6840    1.7830    0.6930 C   0  0  0  0  0  0  0  0  0  0  0  0
   -1.9970    1.1970    0.2430 C   0  0  0  0  0  0  0  0  0  0  0  0
   -2.5390    1.5860   -0.9810 C   0  0  0  0  0  0  0  0  0  0  0  0
   -4.4120    0.1440   -0.6230 C   0  0  0  0  0  0  0  0  0  0  0  0
   -5.7300   -1.7030    0.9740 C   0  0  0  0  0  0  0  0  0  0  0  0
   -3.8590   -0.2560    0.6190 C   0  0  0  0  0  0  0  0  0  0  0  0
    4.0630    0.6980    0.4970 C   0  0  0  0  0  0  0  0  0  0  0  0
    0.2110   -0.0700   -0.4620 O   0  0  0  0  0  0  0  0  0  0  0  0
    2.5010   -0.6860   -0.5990 N   0  0  0  0  0  0  0  0  0  0  0  0
    3.4530   -1.5210   -0.9680 C   0  0  0  0  0  0  0  0  0  0  0  0
    4.7690   -1.2920   -0.6260 C   0  0  0  0  0  0  0  0  0  0  0  0
    5.0900   -0.1620    0.1240 C   0  0  0  0  0  0  0  0  0  0  0  0
    6.3750    0.0960    0.4790 O   0  0  0  0  0  0  0  0  0  0  0  0
    7.3660   -0.8390    0.0480 C   0  0  0  0  0  0  0  0  0  0  0  0
   -2.6340    0.2930    1.0360 C   0  0  0  0  0  0  0  0  0  0  0  0
   -3.7230    1.0760   -1.4170 C   0  0  0  0  0  0  0  0  0  0  0  0
   -4.5460   -1.1920    1.4100 C   0  0  0  0  0  0  0  0  0  0  0  0
   -6.2740   -1.3100   -0.2480 C   0  0  0  0  0  0  0  0  0  0  0  0
   -5.6370   -0.4050   -1.0400 C   0  0  0  0  0  0  0  0  0  0  0  0
    1.9170    2.0840    0.9410 H   0  0  0  0  0  0  0  0  0  0  0  0
   -0.6580    1.8230    1.7820 H   0  0  0  0  0  0  0  0  0  0  0  0
   -0.5780    2.7910    0.2910 H   0  0  0  0  0  0  0  0  0  0  0  0
   -2.0110    2.3030   -1.5920 H   0  0  0  0  0  0  0  0  0  0  0  0
   -6.2560   -2.4230    1.5830 H   0  0  0  0  0  0  0  0  0  0  0  0
    4.2730    1.5830    1.0790 H   0  0  0  0  0  0  0  0  0  0  0  0
    3.1980   -2.3980   -1.5460 H   0  0  0  0  0  0  0  0  0  0  0  0
    5.5420   -1.9810   -0.9330 H   0  0  0  0  0  0  0  0  0  0  0  0
    7.3680   -0.8910   -1.0410 H   0  0  0  0  0  0  0  0  0  0  0  0
    8.3470   -0.5150    0.3970 H   0  0  0  0  0  0  0  0  0  0  0  0
    7.1410   -1.8230    0.4590 H   0  0  0  0  0  0  0  0  0  0  0  0
   -2.2000   -0.0020    1.9800 H   0  0  0  0  0  0  0  0  0  0  0  0
   -4.1300    1.3870   -2.3670 H   0  0  0  0  0  0  0  0  0  0  0  0
   -4.1360   -1.5060    2.3590 H   0  0  0  0  0  0  0  0  0  0  0  0
   -7.2150   -1.7300   -0.5700 H   0  0  0  0  0  0  0  0  0  0  0  0
   -6.0710   -0.1100   -1.9840 H   0  0  0  0  0  0  0  0  0  0  0  0
 12 13  2  0  0  0  0
 13 14  1  0  0  0  0
  2 12  1  0  0  0  0
 14 15  2  0  0  0  0
  1  2  1  0  0  0  0
  2 10  2  0  0  0  0
  1  3  1  0  0  0  0
  6 19  2  0  0  0  0
  5  6  1  0  0  0  0
  3  4  1  0  0  0  0
  4  5  1  0  0  0  0
 10 15  1  0  0  0  0
 15 16  1  0  0  0  0
  7 19  1  0  0  0  0
  3 11  2  0  0  0  0
  5 18  2  0  0  0  0
 16 17  1  0  0  0  0
  7 22  2  0  0  0  0
  7  9  1  0  0  0  0
  9 18  1  0  0  0  0
 21 22  1  0  0  0  0
  9 20  2  0  0  0  0
  8 21  2  0  0  0  0
  8 20  1  0  0  0  0
  1 23  1  0  0  0  0
  4 24  1  0  0  0  0
  4 25  1  0  0  0  0
  6 26  1  0  0  0  0
  8 27  1  0  0  0  0
 10 28  1  0  0  0  0
 13 29  1  0  0  0  0
 14 30  1  0  0  0  0
 17 31  1  0  0  0  0
 17 32  1  0  0  0  0
 17 33  1  0  0  0  0
 18 34  1  0  0  0  0
 19 35  1  0  0  0  0
 20 36  1  0  0  0  0
 21 37  1  0  0  0  0
 22 38  1  0  0  0  0
M  END
> <OPENEYE_ISO_SMILES>
COc1ccnc(c1)NC(=O)Cc2ccc3ccccc3c2

> <OPENEYE_INCHI>
InChI=1S/C18H16N2O2/c1-22-16-8-9-19-17(12-16)20-18(21)11-13-6-7-14-4-2-3-5-15(14)10-13/h2-10,12H,11H2,1H3,(H,19,20,21)

> <OPENEYE_INCHIKEY>
LGUXBXKDCLNCEH-UHFFFAOYSA-N

> <FORMULA>
C18H16N2O2

$$$$
