@<TRIPOS>MOLECULE
/home/pku/3cl/gett_pdb/5RTL/5RTL_mol2/ligand/5RTL_4J8.pdb
 20 20 0 0 0
SMALL
GASTEIGER

@<TRIPOS>ATOM
      1  C1       -49.4220  -33.6030    3.9270 C.ar  201  4J8201     -0.0503
      2  C2       -50.1550  -32.7490    4.7130 C.ar  201  4J8201     -0.0570
      3  C4       -48.5340  -31.0410    4.3380 C.ar  201  4J8201      0.1050
      4  C6       -48.2490  -33.1720    3.3310 C.ar  201  4J8201     -0.0570
      5  O1       -47.4960  -28.7380    3.4220 O.2   201  4J8201     -0.1533
      6  S        -47.9890  -29.3440    4.6420 S.O2  201  4J8201      0.0559
      7  O        -46.8820  -29.2920    5.5920 O.2   201  4J8201     -0.1533
      8  N        -49.3330  -28.5280    5.2620 N.3   201  4J8201     -0.2035
      9  C3       -49.7070  -31.4650    4.9290 C.ar  201  4J8201     -0.0351
     10  C5       -47.8020  -31.8840    3.5340 C.ar  201  4J8201     -0.0351
     11  C        -49.9390  -35.0230    3.7160 C.3   201  4J8201     -0.0397
     12  H1       -50.9400  -33.0430    5.1150 H     201  4J8201      0.0621
     13  H2       -47.7600  -33.7540    2.7950 H     201  4J8201      0.0621
     14  H3       -50.1220  -28.7200    4.9780 H     201  4J8201      0.1442
     15  H4       -49.2280  -27.9170    5.8580 H     201  4J8201      0.1442
     16  H5       -50.1960  -30.8840    5.4660 H     201  4J8201      0.0637
     17  H6       -47.0100  -31.5930    3.1430 H     201  4J8201      0.0637
     18  H7       -50.5140  -35.2710    4.4570 H     201  4J8201      0.0278
     19  H8       -49.1890  -35.6370    3.6690 H     201  4J8201      0.0278
     20  H9       -50.4430  -35.0640    2.8880 H     201  4J8201      0.0278
@<TRIPOS>BOND
     1    13     4    1
     2    20    11    1
     3    17    10    1
     4     4    10   ar
     5     4     1   ar
     6     5     6    2
     7    10     3   ar
     8    19    11    1
     9    11     1    1
    10    11    18    1
    11     1     2   ar
    12     3     6    1
    13     3     9   ar
    14     6     8    1
    15     6     7    2
    16     2     9   ar
    17     2    12    1
    18     9    16    1
    19    14     8    1
    20     8    15    1
