2AQ
  -OEChem-02242320003D

 19 20  0     0  0  0  0  0  0999 V2000
   -6.0850    2.9240   -1.4650 N   0  0  0  0  0  0  0  0  0  0  0  0
   -4.6800    3.0060   -1.2960 C   0  0  0  0  0  0  0  0  0  0  0  0
   -4.0900    4.2380   -1.4940 C   0  0  0  0  0  0  0  0  0  0  0  0
   -2.7150    4.3240   -1.3300 C   0  0  0  0  0  0  0  0  0  0  0  0
   -1.9750    3.1880   -0.9770 C   0  0  0  0  0  0  0  0  0  0  0  0
   -0.5810    3.2420   -0.8040 C   0  0  0  0  0  0  0  0  0  0  0  0
    0.1300    2.0980   -0.4530 C   0  0  0  0  0  0  0  0  0  0  0  0
   -0.5470    0.8980   -0.2740 C   0  0  0  0  0  0  0  0  0  0  0  0
   -1.9320    0.8440   -0.4460 C   0  0  0  0  0  0  0  0  0  0  0  0
   -2.6680    1.9720   -0.7970 C   0  0  0  0  0  0  0  0  0  0  0  0
   -4.0030    1.8860   -0.9550 N   0  0  0  0  0  0  0  0  0  0  0  0
   -6.6360    2.5320   -0.7320 H   0  0  0  0  0  0  0  0  0  0  0  0
   -6.4790    3.1720   -2.3460 H   0  0  0  0  0  0  0  0  0  0  0  0
   -4.6660    5.1150   -1.7670 H   0  0  0  0  0  0  0  0  0  0  0  0
   -2.2240    5.2820   -1.4800 H   0  0  0  0  0  0  0  0  0  0  0  0
   -0.0420    4.1760   -0.9410 H   0  0  0  0  0  0  0  0  0  0  0  0
    1.2060    2.1430   -0.3200 H   0  0  0  0  0  0  0  0  0  0  0  0
    0.0000    0.0000   -0.0000 H   0  0  0  0  0  0  0  0  0  0  0  0
   -2.4390   -0.1080   -0.3000 H   0  0  0  0  0  0  0  0  0  0  0  0
  1  2  1  0  0  0  0
  1 12  1  0  0  0  0
  1 13  1  0  0  0  0
  2 11  2  0  0  0  0
  2  3  1  0  0  0  0
  3  4  2  0  0  0  0
  3 14  1  0  0  0  0
  4  5  1  0  0  0  0
  4 15  1  0  0  0  0
  5 10  1  0  0  0  0
  5  6  2  0  0  0  0
  6  7  1  0  0  0  0
  6 16  1  0  0  0  0
  7  8  2  0  0  0  0
  7 17  1  0  0  0  0
  8  9  1  0  0  0  0
  8 18  1  0  0  0  0
  9 10  2  0  0  0  0
  9 19  1  0  0  0  0
 10 11  1  0  0  0  0
M  END
> <OPENEYE_ISO_SMILES>
c1ccc2c(c1)ccc(n2)N

> <OPENEYE_INCHI>
InChI=1S/C9H8N2/c10-9-6-5-7-3-1-2-4-8(7)11-9/h1-6H,(H2,10,11)

> <OPENEYE_INCHIKEY>
GCMNJUJAKQGROZ-UHFFFAOYSA-N

> <FORMULA>
C9H8N2

$$$$
