P9R
  -OEChem-02242320033D

 79 81  0     1  0  0  0  0  0999 V2000
    3.1940    3.1230    0.3340 C   0  0  0  0  0  0  0  0  0  0  0  0
    4.2030    5.1000    0.4470 C   0  0  0  0  0  0  0  0  0  0  0  0
    4.9900    4.3750   -0.6230 C   0  0  0  0  0  0  0  0  0  0  0  0
    5.6390   -0.5920   -0.4600 C   0  0  2  0  0  0  0  0  0  0  0  0
    4.2890    3.0010   -0.7060 C   0  0  1  0  0  0  0  0  0  0  0  0
    5.2590    1.8750   -0.3430 C   0  0  0  0  0  0  0  0  0  0  0  0
    4.6110    0.5240   -0.6550 C   0  0  2  0  0  0  0  0  0  0  0  0
   -1.2680   -0.3540    0.4550 C   0  0  0  0  0  0  0  0  0  0  0  0
    1.1560   -0.4240    0.6920 C   0  0  1  0  0  0  0  0  0  0  0  0
    1.4650   -1.6780    1.5130 C   0  0  0  0  0  0  0  0  0  0  0  0
    2.6800   -1.4170    2.4050 C   0  0  0  0  0  0  0  0  0  0  0  0
    2.3270   -0.3580    3.4510 C   0  0  0  0  0  0  0  0  0  0  0  0
    3.0830   -2.7140    3.1090 C   0  0  0  0  0  0  0  0  0  0  0  0
    2.3030   -0.1410   -0.2430 C   0  0  0  0  0  0  0  0  0  0  0  0
   -3.6540   -0.3110    0.4240 C   0  0  0  0  0  0  0  0  0  0  0  0
   -4.8150   -0.7130   -0.4880 C   0  0  2  0  0  0  0  0  0  0  0  0
   -6.2290   -0.3360   -0.0390 C   0  0  1  0  0  0  0  0  0  0  0  0
   -7.2370    0.0450   -1.1250 C   0  0  0  0  0  0  0  0  0  0  0  0
   -8.5410    0.5050   -0.4710 C   0  0  0  0  0  0  0  0  0  0  0  0
   -9.5050    1.0030   -1.5510 C   0  0  0  0  0  0  0  0  0  0  0  0
  -10.8090    1.4630   -0.8970 C   0  0  0  0  0  0  0  0  0  0  0  0
  -11.4450    0.2910   -0.1470 C   0  0  0  0  0  0  0  0  0  0  0  0
  -10.4820   -0.2070    0.9320 C   0  0  0  0  0  0  0  0  0  0  0  0
   -9.1770   -0.6670    0.2790 C   0  0  0  0  0  0  0  0  0  0  0  0
   -5.7710   -1.7950    0.0200 C   0  0  0  0  0  0  0  0  0  0  0  0
   -0.0670   -0.6380   -0.0860 N   0  0  0  0  0  0  0  0  0  0  0  0
    3.4770    0.3070    0.2470 N   0  0  0  0  0  0  0  0  0  0  0  0
    3.2640    4.3400    0.8910 N   0  0  0  0  0  0  0  0  0  0  0  0
   -1.3330    0.1640    1.5520 O   0  0  0  0  0  0  0  0  0  0  0  0
    2.3840    2.2640    0.6120 O   0  0  0  0  0  0  0  0  0  0  0  0
    6.8280   -0.2770   -1.1870 O   0  0  0  0  0  0  0  0  0  0  0  0
    2.1710   -0.3150   -1.4360 O   0  0  0  0  0  0  0  0  0  0  0  0
   -2.3960   -0.6450   -0.2200 O   0  0  0  0  0  0  0  0  0  0  0  0
    4.3990    6.1070    0.7860 H   0  0  0  0  0  0  0  0  0  0  0  0
    4.9200    4.9000   -1.5750 H   0  0  0  0  0  0  0  0  0  0  0  0
    6.0320    4.2610   -0.3230 H   0  0  0  0  0  0  0  0  0  0  0  0
    5.8760   -0.6860    0.6000 H   0  0  0  0  0  0  0  0  0  0  0  0
    3.8650    2.8430   -1.6970 H   0  0  0  0  0  0  0  0  0  0  0  0
    6.1740    1.9820   -0.9240 H   0  0  0  0  0  0  0  0  0  0  0  0
    5.4950    1.9270    0.7200 H   0  0  0  0  0  0  0  0  0  0  0  0
    4.2610    0.5190   -1.6870 H   0  0  0  0  0  0  0  0  0  0  0  0
    1.0160    0.4240    1.3630 H   0  0  0  0  0  0  0  0  0  0  0  0
    0.6040   -1.9260    2.1350 H   0  0  0  0  0  0  0  0  0  0  0  0
    1.6790   -2.5090    0.8410 H   0  0  0  0  0  0  0  0  0  0  0  0
    3.5100   -1.0630    1.7940 H   0  0  0  0  0  0  0  0  0  0  0  0
    3.2120   -0.1240    4.0430 H   0  0  0  0  0  0  0  0  0  0  0  0
    1.9770    0.5450    2.9500 H   0  0  0  0  0  0  0  0  0  0  0  0
    1.5420   -0.7390    4.1040 H   0  0  0  0  0  0  0  0  0  0  0  0
    3.3340   -3.4700    2.3650 H   0  0  0  0  0  0  0  0  0  0  0  0
    3.9490   -2.5290    3.7450 H   0  0  0  0  0  0  0  0  0  0  0  0
    2.2530   -3.0690    3.7210 H   0  0  0  0  0  0  0  0  0  0  0  0
   -3.6930    0.7620    0.6100 H   0  0  0  0  0  0  0  0  0  0  0  0
   -3.7320   -0.8480    1.3690 H   0  0  0  0  0  0  0  0  0  0  0  0
   -4.6040   -0.6900   -1.5570 H   0  0  0  0  0  0  0  0  0  0  0  0
   -6.3310    0.1980    0.9060 H   0  0  0  0  0  0  0  0  0  0  0  0
   -6.8300    0.8530   -1.7320 H   0  0  0  0  0  0  0  0  0  0  0  0
   -7.4330   -0.8210   -1.7580 H   0  0  0  0  0  0  0  0  0  0  0  0
   -8.3310    1.3130    0.2290 H   0  0  0  0  0  0  0  0  0  0  0  0
   -9.0520    1.8380   -2.0850 H   0  0  0  0  0  0  0  0  0  0  0  0
   -9.7150    0.1940   -2.2510 H   0  0  0  0  0  0  0  0  0  0  0  0
  -10.5990    2.2710   -0.1970 H   0  0  0  0  0  0  0  0  0  0  0  0
  -11.4960    1.8180   -1.6660 H   0  0  0  0  0  0  0  0  0  0  0  0
  -12.3750    0.6190    0.3190 H   0  0  0  0  0  0  0  0  0  0  0  0
  -11.6550   -0.5180   -0.8470 H   0  0  0  0  0  0  0  0  0  0  0  0
  -10.2720    0.6010    1.6330 H   0  0  0  0  0  0  0  0  0  0  0  0
  -10.9350   -1.0420    1.4670 H   0  0  0  0  0  0  0  0  0  0  0  0
   -9.3870   -1.4760   -0.4220 H   0  0  0  0  0  0  0  0  0  0  0  0
   -8.4910   -1.0220    1.0480 H   0  0  0  0  0  0  0  0  0  0  0  0
   -6.1880   -2.4830   -0.7150 H   0  0  0  0  0  0  0  0  0  0  0  0
   -5.5720   -2.2200    1.0040 H   0  0  0  0  0  0  0  0  0  0  0  0
   -0.0120   -0.9840   -0.9900 H   0  0  0  0  0  0  0  0  0  0  0  0
    3.5700    0.4850    1.1950 H   0  0  0  0  0  0  0  0  0  0  0  0
    7.2490    0.5500   -0.9140 H   0  0  0  0  0  0  0  0  0  0  0  0
    4.9550   -2.1580   -1.0680 S   0  3  0  0  0  0  0  0  0  0  0  0
    5.8630   -3.2500   -1.0440 O   0  0  0  0  0  0  0  0  0  0  0  0
    3.7490   -2.5180   -0.2120 O   0  0  0  0  0  0  0  0  0  0  0  0
    4.4910   -1.9520   -2.5030 O   0  0  0  0  0  0  0  0  0  0  0  0
    3.3180   -3.3450   -0.4670 H   0  0  0  0  0  0  0  0  0  0  0  0
    3.8650   -1.2230   -2.6130 H   0  0  0  0  0  0  0  0  0  0  0  0
 11 13  1  0  0  0  0
 21 22  1  0  0  0  0
 22 23  1  0  0  0  0
 11 12  1  0  0  0  0
 20 21  1  0  0  0  0
 10 11  1  0  0  0  0
 19 20  1  0  0  0  0
 23 24  1  0  0  0  0
 19 24  1  0  0  0  0
  9 10  1  0  0  0  0
 18 19  1  0  0  0  0
 17 18  1  0  0  0  0
  9 26  1  0  0  0  0
  8 26  1  0  0  0  0
  9 14  1  0  0  0  0
 16 17  1  0  0  0  0
 17 25  1  0  0  0  0
  8 33  1  0  0  0  0
 15 33  1  0  0  0  0
  8 29  2  0  0  0  0
 16 25  1  0  0  0  0
 15 16  1  0  0  0  0
 14 32  2  0  0  0  0
 14 27  1  0  0  0  0
  7 27  1  0  0  0  0
  4 31  1  0  0  0  0
  4  7  1  0  0  0  0
  6  7  1  0  0  0  0
  5  6  1  0  0  0  0
  3  5  1  0  0  0  0
  1  5  1  0  0  0  0
  2  3  1  0  0  0  0
  1 30  2  0  0  0  0
  1 28  1  0  0  0  0
  2 28  2  0  0  0  0
  2 34  1  0  0  0  0
  3 35  1  0  0  0  0
  3 36  1  0  0  0  0
  4 37  1  0  0  0  0
  5 38  1  0  0  0  0
  6 39  1  0  0  0  0
  6 40  1  0  0  0  0
  7 41  1  0  0  0  0
  9 42  1  0  0  0  0
 10 43  1  0  0  0  0
 10 44  1  0  0  0  0
 11 45  1  0  0  0  0
 12 46  1  0  0  0  0
 12 47  1  0  0  0  0
 12 48  1  0  0  0  0
 13 49  1  0  0  0  0
 13 50  1  0  0  0  0
 13 51  1  0  0  0  0
 15 52  1  0  0  0  0
 15 53  1  0  0  0  0
 16 54  1  0  0  0  0
 17 55  1  0  0  0  0
 18 56  1  0  0  0  0
 18 57  1  0  0  0  0
 19 58  1  0  0  0  0
 20 59  1  0  0  0  0
 20 60  1  0  0  0  0
 21 61  1  0  0  0  0
 21 62  1  0  0  0  0
 22 63  1  0  0  0  0
 22 64  1  0  0  0  0
 23 65  1  0  0  0  0
 23 66  1  0  0  0  0
 24 67  1  0  0  0  0
 24 68  1  0  0  0  0
 25 69  1  0  0  0  0
 25 70  1  0  0  0  0
 26 71  1  0  0  0  0
 27 72  1  0  0  0  0
 31 73  1  0  0  0  0
  4 74  1  0  0  0  0
 74 75  2  0  0  0  0
 74 76  1  0  0  0  0
 74 77  1  0  0  0  0
 76 78  1  0  0  0  0
 77 79  1  0  0  0  0
M  CHG  1  74   1
M  END
> <OPENEYE_ISO_SMILES>
CC(C)C[C@@H](C(=O)N[C@@H](C[C@@H]1CC=NC1=O)[C@H](O)[S+](=O)(O)O)NC(=O)OC[C@H]2C[C@@H]2CC3CCCCC3

> <OPENEYE_INCHI>
InChI=1S/C25H40N3O8S/c1-15(2)10-20(28-25(32)36-14-19-12-18(19)11-16-6-4-3-5-7-16)23(30)27-21(24(31)37(33,34)35)13-17-8-9-26-22(17)29/h9,15-21,24,31H,3-8,10-14H2,1-2H3,(H2-2,27,28,30,32,33,34,35)/q-1/p+2/t17-,18-,19+,20-,21-,24+/m0/s1

> <OPENEYE_INCHIKEY>
UNYDBHQZGVQZAY-KAXVZBFOSA-P

> <FORMULA>
C25H42N3O8S+

$$$$
