@<TRIPOS>MOLECULE
/home/pku/3cl/gett_pdb/5SPI/5SPI_mol2/ligand/5SPI_S1X.pdb
 46 49 0 0 0
SMALL
GASTEIGER

@<TRIPOS>ATOM
      1  C18      -53.0170  -30.3890   10.0870 C.3   201  S1X201     -0.0412
      2  C16      -52.3330  -29.0770    9.7060 C.3   201  S1X201      0.0359
      3  C17      -53.8580  -29.1430    9.8050 C.3   201  S1X201     -0.0412
      4  C15      -51.7560  -29.0520    8.2810 C.2   201  S1X201      0.2203
      5  C13      -49.6310  -29.0590    6.8090 C.ar  201  S1X201      0.0334
      6  C12      -50.3260  -29.0160    5.6010 C.ar  201  S1X201     -0.0398
      7  C11      -49.6340  -29.0120    4.3920 C.ar  201  S1X201     -0.0479
      8  C10      -48.2420  -29.0590    4.3940 C.ar  201  S1X201      0.0368
      9  C20      -48.2450  -29.1040    6.8050 C.ar  201  S1X201     -0.0398
     10  C02      -43.3310  -29.9120    3.8070 C.2   201  S1X201      0.0472
     11  C03      -43.6150  -29.1330    2.5260 C.3   201  S1X201      0.0251
     12  C04      -42.8500  -29.7480    1.3800 C.3   201  S1X201     -0.0174
     13  C05      -43.7860  -30.8470    0.8430 C.ar  201  S1X201     -0.0417
     14  C06      -45.0830  -30.5750    1.2620 C.ar  201  S1X201     -0.0234
     15  C07      -45.0620  -29.2660    2.0820 C.3   201  S1X201      0.0571
     16  C09      -47.4090  -29.0550    3.0820 C.2   201  S1X201      0.2445
     17  C21      -47.5570  -29.1020    5.6040 C.ar  201  S1X201     -0.0479
     18  C23      -46.1260  -31.4360    0.8940 C.ar  201  S1X201     -0.0565
     19  C24      -45.8580  -32.5660    0.1220 C.ar  201  S1X201     -0.0614
     20  C25      -44.5530  -32.8410   -0.2890 C.ar  201  S1X201     -0.0615
     21  C26      -43.5170  -31.9840    0.0690 C.ar  201  S1X201     -0.0582
     22  N08      -45.9580  -29.2650    3.2120 N.am  201  S1X201     -0.3039
     23  N14      -50.2960  -29.0700    8.1210 N.am  201  S1X201     -0.2853
     24  O01      -43.6900  -29.4390    4.9220 O.co2 201  S1X201     -0.5495
     25  O19      -52.4980  -29.0170    7.3560 O.2   201  S1X201     -0.2752
     26  O22      -47.9200  -28.8930    2.0220 O.2   201  S1X201     -0.2702
     27  O27      -42.7430  -31.0310    3.7600 O.co2 201  S1X201     -0.5495
     28 H181      -52.9220  -30.6720   11.1310 H     201  S1X201      0.0273
     29 H182      -53.0240  -31.1530    9.3120 H     201  S1X201      0.0273
     30 H161      -51.8210  -28.5650   10.5160 H     201  S1X201      0.0394
     31 H172      -54.3980  -29.1470    8.8590 H     201  S1X201      0.0273
     32 H171      -54.2950  -28.6660   10.6770 H     201  S1X201      0.0273
     33 H121      -51.4140  -28.9770    5.5930 H     201  S1X201      0.0636
     34 H111      -50.1870  -28.9770    3.4540 H     201  S1X201      0.0626
     35 H201      -47.6960  -29.1380    7.7450 H     201  S1X201      0.0636
     36 H031      -43.3510  -28.0800    2.6350 H     201  S1X201      0.0385
     37 H042      -42.6980  -28.9980    0.6090 H     201  S1X201      0.0320
     38 H041      -41.9100  -30.1880    1.7180 H     201  S1X201      0.0320
     39 H071      -45.3130  -28.4350    1.4300 H     201  S1X201      0.0555
     40 H211      -46.4720  -29.1370    5.6160 H     201  S1X201      0.0626
     41 H231      -47.1420  -31.2260    1.2150 H     201  S1X201      0.0621
     42 H241      -46.6670  -33.2360   -0.1610 H     201  S1X201      0.0618
     43 H251      -44.3460  -33.7210   -0.8950 H     201  S1X201      0.0618
     44 H261      -42.5000  -32.1930   -0.2510 H     201  S1X201      0.0620
     45 H081      -45.5910  -29.3850    4.1320 H     201  S1X201      0.1496
     46 H141      -49.7200  -29.1130    8.9470 H     201  S1X201      0.1548
@<TRIPOS>UNITY_ATOM_ATTR
24 1
charge -1
@<TRIPOS>BOND
     1    43    20    1
     2    20    21   ar
     3    20    19   ar
     4    44    21    1
     5    42    19    1
     6    21    13   ar
     7    19    18   ar
     8    37    12    1
     9    13    14   ar
    10    13    12    1
    11    18    41    1
    12    18    14   ar
    13    14    15    1
    14    12    38    1
    15    12    11    1
    16    39    15    1
    17    26    16    2
    18    15    11    1
    19    15    22    1
    20    11    36    1
    21    11    10    1
    22    16    22   am
    23    16     8    1
    24    22    45    1
    25    34     7    1
    26    27    10   ar
    27    10    24   ar
    28     7     8   ar
    29     7     6   ar
    30     8    17   ar
    31    33     6    1
    32     6     5   ar
    33    17    40    1
    34    17     9   ar
    35     9     5   ar
    36     9    35    1
    37     5    23    1
    38    25     4    2
    39    23     4   am
    40    23    46    1
    41     4     2    1
    42    31     3    1
    43    29     1    1
    44     2     3    1
    45     2     1    1
    46     2    30    1
    47     3     1    1
    48     3    32    1
    49     1    28    1
