FHB
  -OEChem-02242320023D

 16 16  0     0  0  0  0  0  0999 V2000
   -0.1700   -0.0020    0.9120 C   0  0  0  0  0  0  0  0  0  0  0  0
    0.9320    0.0020    0.0520 C   0  0  0  0  0  0  0  0  0  0  0  0
    0.7380   -0.0100   -1.3120 C   0  0  0  0  0  0  0  0  0  0  0  0
    1.8020   -0.0100   -2.1450 F   0  0  0  0  0  0  0  0  0  0  0  0
   -0.5520   -0.0160   -1.8330 C   0  0  0  0  0  0  0  0  0  0  0  0
   -0.7390   -0.0230   -3.1780 O   0  0  0  0  0  0  0  0  0  0  0  0
   -1.6490   -0.0150   -0.9810 C   0  0  0  0  0  0  0  0  0  0  0  0
   -1.4640   -0.0090    0.3830 C   0  0  0  0  0  0  0  0  0  0  0  0
    0.0310    0.0040    2.3730 C   0  0  0  0  0  0  0  0  0  0  0  0
   -0.9270    0.0040    3.1180 O   0  0  0  0  0  0  0  0  0  0  0  0
    1.2790    0.0100    2.8800 O   0  0  0  0  0  0  0  0  0  0  0  0
    1.9330    0.0070    0.4560 H   0  0  0  0  0  0  0  0  0  0  0  0
   -0.7800    0.9010   -3.4590 H   0  0  0  0  0  0  0  0  0  0  0  0
   -2.6490   -0.0210   -1.3890 H   0  0  0  0  0  0  0  0  0  0  0  0
   -2.3180   -0.0080    1.0440 H   0  0  0  0  0  0  0  0  0  0  0  0
    1.4120    0.0140    3.8380 H   0  0  0  0  0  0  0  0  0  0  0  0
  1  2  2  0  0  0  0
  1  8  1  0  0  0  0
  1  9  1  0  0  0  0
  2  3  1  0  0  0  0
  2 12  1  0  0  0  0
  3  4  1  0  0  0  0
  3  5  2  0  0  0  0
  5  6  1  0  0  0  0
  5  7  1  0  0  0  0
  6 13  1  0  0  0  0
  7  8  2  0  0  0  0
  7 14  1  0  0  0  0
  8 15  1  0  0  0  0
  9 10  2  0  0  0  0
  9 11  1  0  0  0  0
 11 16  1  0  0  0  0
M  END
> <OPENEYE_ISO_SMILES>
c1cc(c(cc1C(=O)O)F)O

> <OPENEYE_INCHI>
InChI=1S/C7H5FO3/c8-5-3-4(7(10)11)1-2-6(5)9/h1-3,9H,(H,10,11)

> <OPENEYE_INCHIKEY>
IUSDEKNMCOUBEE-UHFFFAOYSA-N

> <FORMULA>
C7H5FO3

$$$$
