FIK
  -OEChem-02242320023D

 78 80  0     1  0  0  0  0  0999 V2000
    1.5090    0.3590   -0.0830 C   0  0  0  0  0  0  0  0  0  0  0  0
   -0.9120    0.4680    0.1760 C   0  0  1  0  0  0  0  0  0  0  0  0
   -1.1700    1.8280    0.8280 C   0  0  0  0  0  0  0  0  0  0  0  0
   -0.0370    2.1490    1.8050 C   0  0  0  0  0  0  0  0  0  0  0  0
   -0.2290    3.5600    2.3630 C   0  0  0  0  0  0  0  0  0  0  0  0
   -0.0520    1.1390    2.9540 C   0  0  0  0  0  0  0  0  0  0  0  0
   -2.0860    0.0960   -0.6920 C   0  0  0  0  0  0  0  0  0  0  0  0
   -4.4540   -0.3940   -0.9910 C   0  0  1  0  0  0  0  0  0  0  0  0
   -5.5020   -1.1220   -0.1460 C   0  0  0  0  0  0  0  0  0  0  0  0
   -4.9120   -2.4320    0.3790 C   0  0  1  0  0  0  0  0  0  0  0  0
   -5.9480   -3.1990    1.1710 C   0  0  0  0  0  0  0  0  0  0  0  0
   -4.9140   -4.7580   -0.2060 C   0  0  0  0  0  0  0  0  0  0  0  0
   -4.5570   -3.3750   -0.7940 C   0  0  0  0  0  0  0  0  0  0  0  0
   -5.0700    0.8730   -1.5870 C   0  0  1  0  0  0  0  0  0  0  0  0
    3.8890    0.2130   -0.1650 C   0  0  0  0  0  0  0  0  0  0  0  0
    4.9690   -0.4140   -1.0660 C   0  0  0  0  0  0  0  0  0  0  0  0
    5.9540    0.5540   -0.4120 C   0  0  0  0  0  0  0  0  0  0  0  0
    7.1850    1.0650   -1.1620 C   0  0  0  0  0  0  0  0  0  0  0  0
    9.1190   -0.5570   -0.5180 C   0  0  0  0  0  0  0  0  0  0  0  0
    9.6540   -1.4340    0.5840 C   0  0  0  0  0  0  0  0  0  0  0  0
    6.9060    0.0930    0.6930 C   0  0  0  0  0  0  0  0  0  0  0  0
    4.7720    1.4740   -0.1080 C   0  0  0  0  0  0  0  0  0  0  0  0
    0.2990    0.5440   -0.6460 N   0  0  0  0  0  0  0  0  0  0  0  0
   -3.3120   -0.0320   -0.1470 N   0  0  0  0  0  0  0  0  0  0  0  0
   -5.9310   -4.4970    0.8190 N   0  0  0  0  0  0  0  0  0  0  0  0
    7.9450    0.0860   -0.3570 N   0  0  0  0  0  0  0  0  0  0  0  0
    1.5960    0.1290    1.1070 O   0  0  0  0  0  0  0  0  0  0  0  0
   -6.6870   -2.7140    2.0020 O   0  0  0  0  0  0  0  0  0  0  0  0
   -6.2520    0.5320   -2.3140 O   0  0  0  0  0  0  0  0  0  0  0  0
   -1.9280   -0.0880   -1.8800 O   0  0  0  0  0  0  0  0  0  0  0  0
    2.6210    0.4220   -0.8390 O   0  0  0  0  0  0  0  0  0  0  0  0
    9.7450   -0.4290   -1.5490 O   0  0  0  0  0  0  0  0  0  0  0  0
   -5.4940    2.0250   -0.2500 S   0  0  0  0  0  0  0  0  0  0  0  0
   -0.7780   -0.2870    0.9510 H   0  0  0  0  0  0  0  0  0  0  0  0
   -1.2150    2.5980    0.0580 H   0  0  0  0  0  0  0  0  0  0  0  0
   -2.1170    1.7980    1.3680 H   0  0  0  0  0  0  0  0  0  0  0  0
    0.9190    2.0920    1.2840 H   0  0  0  0  0  0  0  0  0  0  0  0
   -1.1850    3.6180    2.8850 H   0  0  0  0  0  0  0  0  0  0  0  0
    0.5780    3.7890    3.0590 H   0  0  0  0  0  0  0  0  0  0  0  0
   -0.2180    4.2800    1.5450 H   0  0  0  0  0  0  0  0  0  0  0  0
   -1.0080    1.1960    3.4750 H   0  0  0  0  0  0  0  0  0  0  0  0
    0.0850    0.1340    2.5560 H   0  0  0  0  0  0  0  0  0  0  0  0
    0.7550    1.3680    3.6490 H   0  0  0  0  0  0  0  0  0  0  0  0
   -4.1180   -1.0480   -1.7960 H   0  0  0  0  0  0  0  0  0  0  0  0
   -5.7930   -0.4920    0.6940 H   0  0  0  0  0  0  0  0  0  0  0  0
   -6.3770   -1.3370   -0.7590 H   0  0  0  0  0  0  0  0  0  0  0  0
   -4.0310   -2.2350    0.9900 H   0  0  0  0  0  0  0  0  0  0  0  0
   -5.3200   -5.4050   -0.9840 H   0  0  0  0  0  0  0  0  0  0  0  0
   -4.0330   -5.2160    0.2430 H   0  0  0  0  0  0  0  0  0  0  0  0
   -5.1670   -3.1540   -1.6700 H   0  0  0  0  0  0  0  0  0  0  0  0
   -3.4950   -3.3160   -1.0340 H   0  0  0  0  0  0  0  0  0  0  0  0
   -4.3530    1.3450   -2.2590 H   0  0  0  0  0  0  0  0  0  0  0  0
    3.7800   -0.2880    0.7970 H   0  0  0  0  0  0  0  0  0  0  0  0
    5.1720   -1.4610   -0.8430 H   0  0  0  0  0  0  0  0  0  0  0  0
    4.8130   -0.2290   -2.1290 H   0  0  0  0  0  0  0  0  0  0  0  0
    7.1730    0.8430   -2.2290 H   0  0  0  0  0  0  0  0  0  0  0  0
    7.4330    2.1030   -0.9460 H   0  0  0  0  0  0  0  0  0  0  0  0
    8.8250   -1.8140    1.1820 H   0  0  0  0  0  0  0  0  0  0  0  0
    7.0720    0.8380    1.4710 H   0  0  0  0  0  0  0  0  0  0  0  0
    6.6740   -0.8950    1.0900 H   0  0  0  0  0  0  0  0  0  0  0  0
    4.5610    2.1920   -0.9000 H   0  0  0  0  0  0  0  0  0  0  0  0
    4.8160    1.9320    0.8800 H   0  0  0  0  0  0  0  0  0  0  0  0
    0.2290    0.7270   -1.5960 H   0  0  0  0  0  0  0  0  0  0  0  0
   -3.4390    0.1160    0.8030 H   0  0  0  0  0  0  0  0  0  0  0  0
   -6.5160   -5.1730    1.1950 H   0  0  0  0  0  0  0  0  0  0  0  0
   -6.9350    0.1080   -1.7780 H   0  0  0  0  0  0  0  0  0  0  0  0
   -4.3210    2.6170    0.2890 O   0  0  0  0  0  0  0  0  0  0  0  0
   -6.2060    3.1740   -0.9510 O   0  0  0  0  0  0  0  0  0  0  0  0
   -6.4870    1.4620    0.5960 O   0  0  0  0  0  0  0  0  0  0  0  0
   -6.4970    3.8780   -0.3550 H   0  0  0  0  0  0  0  0  0  0  0  0
   10.4220   -2.6080   -0.0260 C   0  0  0  0  0  0  0  0  0  0  0  0
   10.5930   -0.6180    1.4750 C   0  0  0  0  0  0  0  0  0  0  0  0
   11.2510   -2.2290   -0.6230 H   0  0  0  0  0  0  0  0  0  0  0  0
   10.8090   -3.2430    0.7710 H   0  0  0  0  0  0  0  0  0  0  0  0
    9.7530   -3.1900   -0.6600 H   0  0  0  0  0  0  0  0  0  0  0  0
   10.0430    0.2110    1.9200 H   0  0  0  0  0  0  0  0  0  0  0  0
   10.9900   -1.2560    2.2650 H   0  0  0  0  0  0  0  0  0  0  0  0
   11.4160   -0.2290    0.8750 H   0  0  0  0  0  0  0  0  0  0  0  0
 19 32  2  0  0  0  0
 19 26  1  0  0  0  0
 19 20  1  0  0  0  0
 21 26  1  0  0  0  0
 17 21  1  0  0  0  0
 18 26  1  0  0  0  0
 11 28  2  0  0  0  0
 17 18  1  0  0  0  0
 17 22  1  0  0  0  0
 16 17  1  0  0  0  0
 11 25  1  0  0  0  0
 10 11  1  0  0  0  0
 12 25  1  0  0  0  0
 15 22  1  0  0  0  0
 15 16  1  0  0  0  0
 15 31  1  0  0  0  0
  1 27  2  0  0  0  0
  9 10  1  0  0  0  0
 10 13  1  0  0  0  0
  1 31  1  0  0  0  0
 12 13  1  0  0  0  0
  1 23  1  0  0  0  0
  8  9  1  0  0  0  0
  4  5  1  0  0  0  0
 14 33  1  0  0  0  0
  2 23  1  0  0  0  0
  8 24  1  0  0  0  0
  7 24  1  0  0  0  0
  2  7  1  0  0  0  0
  2  3  1  0  0  0  0
  8 14  1  0  0  0  0
  7 30  2  0  0  0  0
  3  4  1  0  0  0  0
  4  6  1  0  0  0  0
 14 29  1  0  0  0  0
  2 34  1  0  0  0  0
  3 35  1  0  0  0  0
  3 36  1  0  0  0  0
  4 37  1  0  0  0  0
  5 38  1  0  0  0  0
  5 39  1  0  0  0  0
  5 40  1  0  0  0  0
  6 41  1  0  0  0  0
  6 42  1  0  0  0  0
  6 43  1  0  0  0  0
  8 44  1  0  0  0  0
  9 45  1  0  0  0  0
  9 46  1  0  0  0  0
 10 47  1  0  0  0  0
 12 48  1  0  0  0  0
 12 49  1  0  0  0  0
 13 50  1  0  0  0  0
 13 51  1  0  0  0  0
 14 52  1  0  0  0  0
 15 53  1  0  0  0  0
 16 54  1  0  0  0  0
 16 55  1  0  0  0  0
 18 56  1  0  0  0  0
 18 57  1  0  0  0  0
 20 58  1  0  0  0  0
 21 59  1  0  0  0  0
 21 60  1  0  0  0  0
 22 61  1  0  0  0  0
 22 62  1  0  0  0  0
 23 63  1  0  0  0  0
 24 64  1  0  0  0  0
 25 65  1  0  0  0  0
 29 66  1  0  0  0  0
 33 67  2  0  0  0  0
 33 68  1  0  0  0  0
 33 69  2  0  0  0  0
 68 70  1  0  0  0  0
 20 71  1  0  0  0  0
 20 72  1  0  0  0  0
 71 73  1  0  0  0  0
 71 74  1  0  0  0  0
 71 75  1  0  0  0  0
 72 76  1  0  0  0  0
 72 77  1  0  0  0  0
 72 78  1  0  0  0  0
M  END
> <OPENEYE_ISO_SMILES>
CC(C)C[C@@H](C(=O)N[C@@H](C[C@@H]1CCNC1=O)[C@@H](O)S(=O)(=O)O)NC(=O)OC2CC3(C2)CN(C3)C(=O)C(C)C

> <OPENEYE_INCHI>
InChI=1S/C24H40N4O9S/c1-13(2)7-17(20(30)26-18(22(32)38(34,35)36)8-15-5-6-25-19(15)29)27-23(33)37-16-9-24(10-16)11-28(12-24)21(31)14(3)4/h13-18,22,32H,5-12H2,1-4H3,(H,25,29)(H,26,30)(H,27,33)(H,34,35,36)/t15-,17-,18-,22-/m0/s1

> <OPENEYE_INCHIKEY>
HTJCLKWRDFEDBR-JVGYHMDPSA-N

> <FORMULA>
C24H40N4O9S

$$$$
