FIW
  -OEChem-02242320023D

 78 80  0     1  0  0  0  0  0999 V2000
    1.5270    1.1640   -0.0340 C   0  0  0  0  0  0  0  0  0  0  0  0
   -0.8980    1.0020    0.1360 C   0  0  1  0  0  0  0  0  0  0  0  0
   -1.3160    2.3570    0.7110 C   0  0  0  0  0  0  0  0  0  0  0  0
   -2.4240    2.1510    1.7470 C   0  0  0  0  0  0  0  0  0  0  0  0
   -1.8630    1.3900    2.9500 C   0  0  0  0  0  0  0  0  0  0  0  0
   -2.9520    3.5120    2.2050 C   0  0  0  0  0  0  0  0  0  0  0  0
   -1.9970    0.4720   -0.7490 C   0  0  0  0  0  0  0  0  0  0  0  0
   -4.1350   -0.6570   -1.0530 C   0  0  1  0  0  0  0  0  0  0  0  0
   -4.9480   -1.6550   -0.2270 C   0  0  0  0  0  0  0  0  0  0  0  0
   -4.0430   -2.8060    0.2180 C   0  0  1  0  0  0  0  0  0  0  0  0
   -4.8310   -3.8230    1.0130 C   0  0  0  0  0  0  0  0  0  0  0  0
   -3.5260   -5.0450   -0.4690 C   0  0  0  0  0  0  0  0  0  0  0  0
   -3.5310   -3.5970   -1.0080 C   0  0  0  0  0  0  0  0  0  0  0  0
   -5.0670    0.4190   -1.6160 C   0  0  2  0  0  0  0  0  0  0  0  0
    3.9130    1.2060   -0.0340 C   0  0  0  0  0  0  0  0  0  0  0  0
    4.7370   -0.0800   -0.2270 C   0  0  0  0  0  0  0  0  0  0  0  0
    5.9670    0.8230   -0.3030 C   0  0  0  0  0  0  0  0  0  0  0  0
    7.1980    0.4230   -1.1190 C   0  0  0  0  0  0  0  0  0  0  0  0
    8.7930   -0.7700    0.5600 C   0  0  0  0  0  0  0  0  0  0  0  0
    9.5250   -1.5900   -0.4710 C   0  0  0  0  0  0  0  0  0  0  0  0
    6.9040    0.9930    0.8940 C   0  0  0  0  0  0  0  0  0  0  0  0
    5.0470    1.9550   -0.7580 C   0  0  0  0  0  0  0  0  0  0  0  0
    0.3280    1.1620   -0.6490 N   0  0  0  0  0  0  0  0  0  0  0  0
   -3.1220   -0.0280   -0.2020 N   0  0  0  0  0  0  0  0  0  0  0  0
   -4.5260   -5.0660    0.6050 N   0  0  0  0  0  0  0  0  0  0  0  0
    7.8070    0.0660    0.1790 N   0  0  0  0  0  0  0  0  0  0  0  0
    1.5870    1.1220    1.1790 O   0  0  0  0  0  0  0  0  0  0  0  0
   -5.6230   -3.5550    1.8920 O   0  0  0  0  0  0  0  0  0  0  0  0
   -4.3280    1.2830   -2.4810 O   0  0  0  0  0  0  0  0  0  0  0  0
   -1.8680    0.4950   -1.9550 O   0  0  0  0  0  0  0  0  0  0  0  0
    2.6580    1.2070   -0.7630 O   0  0  0  0  0  0  0  0  0  0  0  0
    9.0910   -0.8630    1.7320 O   0  0  0  0  0  0  0  0  0  0  0  0
   -5.7680    1.3850   -0.2500 S   0  0  0  0  0  0  0  0  0  0  0  0
   -0.7190    0.3010    0.9510 H   0  0  0  0  0  0  0  0  0  0  0  0
   -0.4570    2.8300    1.1870 H   0  0  0  0  0  0  0  0  0  0  0  0
   -1.6840    2.9950   -0.0920 H   0  0  0  0  0  0  0  0  0  0  0  0
   -3.2360    1.5780    1.3010 H   0  0  0  0  0  0  0  0  0  0  0  0
   -2.6650    1.1950    3.6620 H   0  0  0  0  0  0  0  0  0  0  0  0
   -1.4360    0.4450    2.6150 H   0  0  0  0  0  0  0  0  0  0  0  0
   -1.0890    1.9890    3.4300 H   0  0  0  0  0  0  0  0  0  0  0  0
   -3.3520    4.0540    1.3480 H   0  0  0  0  0  0  0  0  0  0  0  0
   -3.7410    3.3660    2.9430 H   0  0  0  0  0  0  0  0  0  0  0  0
   -2.1400    4.0860    2.6510 H   0  0  0  0  0  0  0  0  0  0  0  0
   -3.6450   -1.1790   -1.8750 H   0  0  0  0  0  0  0  0  0  0  0  0
   -5.3560   -1.1530    0.6500 H   0  0  0  0  0  0  0  0  0  0  0  0
   -5.7640   -2.0480   -0.8330 H   0  0  0  0  0  0  0  0  0  0  0  0
   -3.2050   -2.4270    0.8030 H   0  0  0  0  0  0  0  0  0  0  0  0
   -3.8040   -5.7430   -1.2580 H   0  0  0  0  0  0  0  0  0  0  0  0
   -2.5410   -5.2960   -0.0740 H   0  0  0  0  0  0  0  0  0  0  0  0
   -4.2160   -3.4970   -1.8500 H   0  0  0  0  0  0  0  0  0  0  0  0
   -2.5260   -3.2800   -1.2860 H   0  0  0  0  0  0  0  0  0  0  0  0
   -5.8720   -0.0560   -2.1770 H   0  0  0  0  0  0  0  0  0  0  0  0
    3.7960    1.4970    1.0100 H   0  0  0  0  0  0  0  0  0  0  0  0
    4.7310   -0.7380    0.6420 H   0  0  0  0  0  0  0  0  0  0  0  0
    4.5200   -0.6030   -1.1580 H   0  0  0  0  0  0  0  0  0  0  0  0
    7.0310   -0.4300   -1.7770 H   0  0  0  0  0  0  0  0  0  0  0  0
    7.6840    1.2590   -1.6210 H   0  0  0  0  0  0  0  0  0  0  0  0
    8.8180   -2.2360   -0.9910 H   0  0  0  0  0  0  0  0  0  0  0  0
    7.3030    2.0010    1.0010 H   0  0  0  0  0  0  0  0  0  0  0  0
    6.5060    0.5890    1.8250 H   0  0  0  0  0  0  0  0  0  0  0  0
    4.9170    2.0060   -1.8390 H   0  0  0  0  0  0  0  0  0  0  0  0
    5.2880    2.9200   -0.3130 H   0  0  0  0  0  0  0  0  0  0  0  0
    0.2770    1.2670   -1.6120 H   0  0  0  0  0  0  0  0  0  0  0  0
   -3.2610    0.0280    0.7570 H   0  0  0  0  0  0  0  0  0  0  0  0
   -4.9180   -5.8740    0.9720 H   0  0  0  0  0  0  0  0  0  0  0  0
   -3.5940    1.7400   -2.0480 H   0  0  0  0  0  0  0  0  0  0  0  0
   -4.7600    2.1650    0.3780 O   0  0  0  0  0  0  0  0  0  0  0  0
   -6.6660    2.4080   -0.9310 O   0  0  0  0  0  0  0  0  0  0  0  0
   -6.6620    0.5890    0.5160 O   0  0  0  0  0  0  0  0  0  0  0  0
   10.2000   -0.6570   -1.4790 C   0  0  0  0  0  0  0  0  0  0  0  0
   10.5870   -2.4470    0.2200 C   0  0  0  0  0  0  0  0  0  0  0  0
   -7.1160    3.0050   -0.3190 H   0  0  0  0  0  0  0  0  0  0  0  0
   10.7300   -1.2500   -2.2250 H   0  0  0  0  0  0  0  0  0  0  0  0
    9.4430   -0.0460   -1.9720 H   0  0  0  0  0  0  0  0  0  0  0  0
   10.9070   -0.0110   -0.9590 H   0  0  0  0  0  0  0  0  0  0  0  0
   10.1060   -3.1120    0.9380 H   0  0  0  0  0  0  0  0  0  0  0  0
   11.1170   -3.0400   -0.5260 H   0  0  0  0  0  0  0  0  0  0  0  0
   11.2940   -1.8010    0.7400 H   0  0  0  0  0  0  0  0  0  0  0  0
 11 28  2  0  0  0  0
 15 16  1  0  0  0  0
 16 17  1  0  0  0  0
 17 21  1  0  0  0  0
 21 26  1  0  0  0  0
 15 22  1  0  0  0  0
 15 31  1  0  0  0  0
 11 25  1  0  0  0  0
 10 11  1  0  0  0  0
 17 22  1  0  0  0  0
 12 25  1  0  0  0  0
 17 18  1  0  0  0  0
  1 27  2  0  0  0  0
 18 26  1  0  0  0  0
 19 26  1  0  0  0  0
  9 10  1  0  0  0  0
 10 13  1  0  0  0  0
  1 31  1  0  0  0  0
  1 23  1  0  0  0  0
 19 32  2  0  0  0  0
 12 13  1  0  0  0  0
  8  9  1  0  0  0  0
 19 20  1  0  0  0  0
  2 23  1  0  0  0  0
 14 33  1  0  0  0  0
  4  5  1  0  0  0  0
  2  7  1  0  0  0  0
  2  3  1  0  0  0  0
  7 24  1  0  0  0  0
  8 24  1  0  0  0  0
  7 30  2  0  0  0  0
  8 14  1  0  0  0  0
  3  4  1  0  0  0  0
  4  6  1  0  0  0  0
 14 29  1  0  0  0  0
  2 34  1  0  0  0  0
  3 35  1  0  0  0  0
  3 36  1  0  0  0  0
  4 37  1  0  0  0  0
  5 38  1  0  0  0  0
  5 39  1  0  0  0  0
  5 40  1  0  0  0  0
  6 41  1  0  0  0  0
  6 42  1  0  0  0  0
  6 43  1  0  0  0  0
  8 44  1  0  0  0  0
  9 45  1  0  0  0  0
  9 46  1  0  0  0  0
 10 47  1  0  0  0  0
 12 48  1  0  0  0  0
 12 49  1  0  0  0  0
 13 50  1  0  0  0  0
 13 51  1  0  0  0  0
 14 52  1  0  0  0  0
 15 53  1  0  0  0  0
 16 54  1  0  0  0  0
 16 55  1  0  0  0  0
 18 56  1  0  0  0  0
 18 57  1  0  0  0  0
 20 58  1  0  0  0  0
 21 59  1  0  0  0  0
 21 60  1  0  0  0  0
 22 61  1  0  0  0  0
 22 62  1  0  0  0  0
 23 63  1  0  0  0  0
 24 64  1  0  0  0  0
 25 65  1  0  0  0  0
 29 66  1  0  0  0  0
 33 67  2  0  0  0  0
 33 68  1  0  0  0  0
 33 69  2  0  0  0  0
 20 70  1  0  0  0  0
 20 71  1  0  0  0  0
 68 72  1  0  0  0  0
 70 73  1  0  0  0  0
 70 74  1  0  0  0  0
 70 75  1  0  0  0  0
 71 76  1  0  0  0  0
 71 77  1  0  0  0  0
 71 78  1  0  0  0  0
M  END
> <OPENEYE_ISO_SMILES>
CC(C)C[C@@H](C(=O)N[C@@H](C[C@@H]1CCNC1=O)[C@H](O)S(=O)(=O)O)NC(=O)OC2CC3(C2)CN(C3)C(=O)C(C)C

> <OPENEYE_INCHI>
InChI=1S/C24H40N4O9S/c1-13(2)7-17(20(30)26-18(22(32)38(34,35)36)8-15-5-6-25-19(15)29)27-23(33)37-16-9-24(10-16)11-28(12-24)21(31)14(3)4/h13-18,22,32H,5-12H2,1-4H3,(H,25,29)(H,26,30)(H,27,33)(H,34,35,36)/t15-,17-,18-,22+/m0/s1

> <OPENEYE_INCHIKEY>
HTJCLKWRDFEDBR-ABXWHYIOSA-N

> <FORMULA>
C24H40N4O9S

$$$$
