W27
  -OEChem-02242320043D

 29 31  0     1  0  0  0  0  0999 V2000
   -2.4020    0.4380   -1.2110 N   0  0  0  0  0  0  0  0  0  0  0  0
   -0.9420   -0.3450    0.4410 C   0  0  0  0  0  0  0  0  0  0  0  0
   -1.9190   -1.2010    0.9200 C   0  0  0  0  0  0  0  0  0  0  0  0
   -3.1550   -1.2050    0.2900 C   0  0  0  0  0  0  0  0  0  0  0  0
   -3.3590   -0.3580   -0.7830 C   0  0  0  0  0  0  0  0  0  0  0  0
    0.4100   -0.2930    1.1210 C   0  0  1  0  0  0  0  0  0  0  0  0
    0.7750    2.1190    1.0160 C   0  0  0  0  0  0  0  0  0  0  0  0
    3.1130   -0.3800   -1.3000 O   0  0  0  0  0  0  0  0  0  0  0  0
    2.3740   -0.7890   -0.4290 C   0  0  0  0  0  0  0  0  0  0  0  0
    2.5350   -2.1910    0.0990 C   0  0  0  0  0  0  0  0  0  0  0  0
    1.4080    0.0110    0.0650 N   0  0  0  0  0  0  0  0  0  0  0  0
    0.3980    0.9880    1.9960 C   0  0  0  0  0  0  0  0  0  0  0  0
    1.0870    1.4070   -0.3140 C   0  0  1  0  0  0  0  0  0  0  0  0
   -1.2070    0.4670   -0.6410 C   0  0  0  0  0  0  0  0  0  0  0  0
   -0.1530    1.3850   -1.2070 C   0  0  0  0  0  0  0  0  0  0  0  0
   -1.7240   -1.8490    1.7620 H   0  0  0  0  0  0  0  0  0  0  0  0
   -3.9440   -1.8590    0.6320 H   0  0  0  0  0  0  0  0  0  0  0  0
   -4.3190   -0.3500   -1.2780 H   0  0  0  0  0  0  0  0  0  0  0  0
    0.6350   -1.1960    1.6890 H   0  0  0  0  0  0  0  0  0  0  0  0
   -0.0620    2.8060    0.8900 H   0  0  0  0  0  0  0  0  0  0  0  0
    1.6540    2.6550    1.3740 H   0  0  0  0  0  0  0  0  0  0  0  0
    3.2260   -2.1840    0.9420 H   0  0  0  0  0  0  0  0  0  0  0  0
    1.5660   -2.5690    0.4260 H   0  0  0  0  0  0  0  0  0  0  0  0
    2.9290   -2.8330   -0.6880 H   0  0  0  0  0  0  0  0  0  0  0  0
   -0.5960    1.1570    2.4110 H   0  0  0  0  0  0  0  0  0  0  0  0
    1.1370    0.9120    2.7940 H   0  0  0  0  0  0  0  0  0  0  0  0
    1.9310    1.8780   -0.8180 H   0  0  0  0  0  0  0  0  0  0  0  0
   -0.5580    2.3930   -1.2820 H   0  0  0  0  0  0  0  0  0  0  0  0
    0.1280    1.0370   -2.2010 H   0  0  0  0  0  0  0  0  0  0  0  0
  8  9  2  0  0  0  0
  6 12  1  0  0  0  0
  2  6  1  0  0  0  0
  6 11  1  0  0  0  0
  7 12  1  0  0  0  0
  3  4  2  0  0  0  0
  2  3  1  0  0  0  0
  9 11  1  0  0  0  0
  9 10  1  0  0  0  0
  4  5  1  0  0  0  0
  2 14  2  0  0  0  0
 11 13  1  0  0  0  0
  7 13  1  0  0  0  0
 13 15  1  0  0  0  0
  1  5  2  0  0  0  0
  1 14  1  0  0  0  0
 14 15  1  0  0  0  0
  3 16  1  0  0  0  0
  4 17  1  0  0  0  0
  5 18  1  0  0  0  0
  6 19  1  0  0  0  0
  7 20  1  0  0  0  0
  7 21  1  0  0  0  0
 10 22  1  0  0  0  0
 10 23  1  0  0  0  0
 10 24  1  0  0  0  0
 12 25  1  0  0  0  0
 12 26  1  0  0  0  0
 13 27  1  0  0  0  0
 15 28  1  0  0  0  0
 15 29  1  0  0  0  0
M  END
> <OPENEYE_ISO_SMILES>
CC(=O)N1[C@@H]2CC[C@H]1c3cccnc3C2

> <OPENEYE_INCHI>
InChI=1S/C12H14N2O/c1-8(15)14-9-4-5-12(14)10-3-2-6-13-11(10)7-9/h2-3,6,9,12H,4-5,7H2,1H3/t9-,12+/m1/s1

> <OPENEYE_INCHIKEY>
VZERDZVLLIAWDV-SKDRFNHKSA-N

> <FORMULA>
C12H14N2O

$$$$
