@<TRIPOS>MOLECULE
/home/pku/3cl/gett_pdb/7RVY/7RVY_mol2/ligand/7RVY_7YQ.pdb
 44 46 0 0 0
SMALL
GASTEIGER

@<TRIPOS>ATOM
      1  C1        -5.7470  -21.0770  -17.7720 C.ar  401  7YQ401      0.0222
      2  C10      -11.5920  -20.8090  -19.0420 C.3   401  7YQ401      0.0930
      3  C11       -9.8190  -17.7950  -18.1440 C.3   401  7YQ401      0.2029
      4  C12      -10.0550  -16.4970  -17.4460 C.2   401  7YQ401      0.2642
      5  C13       -7.5550  -12.7710  -17.6170 C.3   401  7YQ401      0.0022
      6  C14       -9.7610  -14.1220  -17.3330 C.3   401  7YQ401      0.1728
      7  C15      -11.2330  -13.8010  -17.3540 C.2   401  7YQ401      0.2612
      8  C16       -6.8520  -14.0170  -17.1520 C.3   401  7YQ401      0.0001
      9  C17      -13.1700  -12.7460  -16.4070 C.3   401  7YQ401      0.1287
     10  C18       -5.4140  -13.7550  -16.7120 C.3   401  7YQ401      0.0000
     11  C19      -14.0630  -13.5610  -15.4690 C.3   401  7YQ401      0.0335
     12  C2        -6.2080  -22.3560  -18.0800 C.ar  401  7YQ401      0.0107
     13  C20      -14.1050  -15.0290  -15.8650 C.3   401  7YQ401      0.0818
     14  C21      -14.7700  -15.2430  -17.2140 C.3   401  7YQ401      0.0326
     15  C22      -15.6340  -16.4860  -17.0280 C.3   401  7YQ401      0.1156
     16  C23       -4.6830  -12.7690  -17.6110 C.3   401  7YQ401      0.0000
     17  C24      -14.9340  -15.8710  -14.9280 C.2   401  7YQ401      0.2410
     18  C25       -5.3660  -12.6000  -18.9620 C.3   401  7YQ401      0.0000
     19  C26       -6.8240  -12.1630  -18.8060 C.3   401  7YQ401      0.0001
     20  C27      -10.6520  -21.7620  -18.3170 C.3   401  7YQ401      0.0296
     21  C28      -12.0460  -21.3990  -20.3590 C.3   401  7YQ401      0.0296
     22  C29      -12.8190  -20.6380  -18.1630 C.3   401  7YQ401      0.0296
     23  C3        -5.9780  -22.8510  -19.3780 C.ar  401  7YQ401      0.0575
     24  C30      -11.1560  -18.4540  -18.4760 C.3   401  7YQ401      0.1439
     25  C31      -12.1100  -17.4810  -19.1740 C.3   401  7YQ401      0.0344
     26  C34       -8.9970  -13.0430  -18.0860 C.3   401  7YQ401      0.0311
     27  C4        -5.3190  -22.1100  -20.3420 C.ar  401  7YQ401      0.0114
     28  C5        -4.8830  -20.8490  -20.0140 C.ar  401  7YQ401      0.0007
     29  C6        -5.0930  -20.3400  -18.7440 C.ar  401  7YQ401     -0.0006
     30  C7        -5.9410  -20.4210  -16.4350 C.3   401  7YQ401      0.2368
     31  C8       -13.1950  -11.2680  -16.0000 C.3   401  7YQ401      0.2036
     32  C9        -7.8120  -18.9270  -17.3170 C.2   401  7YQ401      0.4219
     33  N10       -9.1180  -18.6810  -17.2530 N.am  401  7YQ401     -0.1585
     34  N13       -9.6070  -15.3840  -18.0310 N.am  401  7YQ401     -0.1963
     35  N16      -11.7960  -13.2140  -16.3090 N.am  401  7YQ401     -0.2030
     36  N23      -15.8060  -16.6080  -15.6010 N.am  401  7YQ401     -0.2054
     37  O26      -14.7900  -15.8640  -13.7300 O.2   401  7YQ401     -0.2734
     38  O29       -7.0610  -18.3440  -18.0710 O.2   401  7YQ401     -0.2245
     39  O33      -10.6460  -16.4630  -16.3790 O.2   401  7YQ401     -0.2714
     40  O38      -11.8850  -14.0940  -18.3460 O.2   401  7YQ401     -0.2715
     41  O5       -10.9090  -19.5780  -19.3280 O.3   401  7YQ401     -0.3587
     42  O8        -7.2880  -19.9400  -16.4150 O.3   401  7YQ401     -0.4285
     43  O9       -14.4270  -10.6240  -16.4020 O.3   401  7YQ401     -0.2185
     44 CL7        -6.5180  -24.4740  -19.8980 Cl    401  7YQ401     -0.0823
@<TRIPOS>BOND
     1    21     2    1
     2    27    28   ar
     3    27    23   ar
     4    28    29   ar
     5    44    23    1
     6    23    12   ar
     7    41     2    1
     8    41    24    1
     9    25    24    1
    10     2    20    1
    11     2    22    1
    12    18    19    1
    13    18    16    1
    14    19     5    1
    15    29     1   ar
    16    24     3    1
    17    40     7    2
    18     3     4    1
    19     3    33    1
    20    26     5    1
    21    26     6    1
    22    12     1   ar
    23    38    32    2
    24    34     4   am
    25    34     6    1
    26     1    30    1
    27     5     8    1
    28    16    10    1
    29     4    39    2
    30     7     6    1
    31     7    35   am
    32    32    33   am
    33    32    42    1
    34    14    15    1
    35    14    13    1
    36     8    10    1
    37    15    36    1
    38    30    42    1
    39     9    35    1
    40     9    31    1
    41     9    11    1
    42    43    31    1
    43    13    11    1
    44    13    17    1
    45    36    17   am
    46    17    37    2
