91Z
  -OEChem-02242320013D

 67 70  0     1  0  0  0  0  0999 V2000
    0.6900    1.2450    0.3480 N   0  0  0  0  0  0  0  0  0  0  0  0
   -2.9580    0.6720    0.4060 N   0  0  0  0  0  0  0  0  0  0  0  0
    0.2110    3.5400   -0.1340 C   0  0  1  0  0  0  0  0  0  0  0  0
    0.4160    3.8430    1.3540 C   0  0  0  0  0  0  0  0  0  0  0  0
    1.5360    3.0940    2.0780 C   0  0  0  0  0  0  0  0  0  0  0  0
    0.1750    5.2800    1.8210 C   0  0  0  0  0  0  0  0  0  0  0  0
    0.8610    2.2650   -0.7120 C   0  0  0  0  0  0  0  0  0  0  0  0
    2.9180    0.2070    0.0690 C   0  0  0  0  0  0  0  0  0  0  0  0
    6.2940   -1.3610   -1.8860 C   0  0  0  0  0  0  0  0  0  0  0  0
    7.3420   -0.9850    0.2390 C   0  0  0  0  0  0  0  0  0  0  0  0
   -3.9650    0.0960   -0.4890 C   0  0  1  0  0  0  0  0  0  0  0  0
   -4.9290   -0.7740    0.3190 C   0  0  0  0  0  0  0  0  0  0  0  0
   -4.1600   -1.9390    0.9460 C   0  0  2  0  0  0  0  0  0  0  0  0
   -3.6220   -2.8850   -0.1530 C   0  0  0  0  0  0  0  0  0  0  0  0
   -5.0910   -2.8100    1.7610 C   0  0  0  0  0  0  0  0  0  0  0  0
   -1.4170    0.6270   -1.1890 O   0  0  0  0  0  0  0  0  0  0  0  0
   -1.7080    0.8990   -0.0440 C   0  0  0  0  0  0  0  0  0  0  0  0
   -0.6720    1.4900    0.8770 C   0  0  2  0  0  0  0  0  0  0  0  0
   -0.8030    3.0280    0.9170 C   0  0  2  0  0  0  0  0  0  0  0  0
    1.5710    0.3030    0.7390 C   0  0  0  0  0  0  0  0  0  0  0  0
    3.6870   -0.8910    0.6710 N   0  0  0  0  0  0  0  0  0  0  0  0
    4.9480   -1.0090    0.0700 C   0  0  0  0  0  0  0  0  0  0  0  0
    5.0480   -1.2500   -1.2950 C   0  0  0  0  0  0  0  0  0  0  0  0
    3.9310   -1.3770   -2.0430 F   0  0  0  0  0  0  0  0  0  0  0  0
    7.4400   -1.2310   -1.1200 C   0  0  0  0  0  0  0  0  0  0  0  0
    8.6550   -1.3450   -1.6990 F   0  0  0  0  0  0  0  0  0  0  0  0
    6.0990   -0.8680    0.8350 C   0  0  0  0  0  0  0  0  0  0  0  0
    6.0050   -0.6180    2.1590 F   0  0  0  0  0  0  0  0  0  0  0  0
    1.2810   -0.4670    1.6300 O   0  0  0  0  0  0  0  0  0  0  0  0
   -4.7450    1.2230   -1.1710 C   0  0  1  0  0  0  0  0  0  0  0  0
   -3.8310    2.1150   -1.8120 O   0  0  0  0  0  0  0  0  0  0  0  0
   -5.6790    0.6370   -2.1980 C   0  0  0  0  0  0  0  0  0  0  0  0
   -6.8080    0.0160   -1.8050 N   0  0  0  0  0  0  0  0  0  0  0  0
   -5.4140    0.7250   -3.3780 O   0  0  0  0  0  0  0  0  0  0  0  0
   -3.7790   -4.2680    0.5170 C   0  0  0  0  0  0  0  0  0  0  0  0
   -4.8590   -4.1080    1.4980 N   0  0  0  0  0  0  0  0  0  0  0  0
   -5.9240   -2.3970    2.5400 O   0  0  0  0  0  0  0  0  0  0  0  0
   -3.1910    0.8890    1.3220 H   0  0  0  0  0  0  0  0  0  0  0  0
   -0.0390    4.3400   -0.8310 H   0  0  0  0  0  0  0  0  0  0  0  0
    2.3300    3.7930    2.3420 H   0  0  0  0  0  0  0  0  0  0  0  0
    1.1400    2.6360    2.9850 H   0  0  0  0  0  0  0  0  0  0  0  0
    1.9370    2.3190    1.4250 H   0  0  0  0  0  0  0  0  0  0  0  0
   -0.2660    5.8570    1.0080 H   0  0  0  0  0  0  0  0  0  0  0  0
   -0.5040    5.2760    2.6740 H   0  0  0  0  0  0  0  0  0  0  0  0
    1.1230    5.7310    2.1140 H   0  0  0  0  0  0  0  0  0  0  0  0
    1.9190    2.4330   -0.9110 H   0  0  0  0  0  0  0  0  0  0  0  0
    0.3470    1.9560   -1.6230 H   0  0  0  0  0  0  0  0  0  0  0  0
    2.7810    0.0140   -0.9950 H   0  0  0  0  0  0  0  0  0  0  0  0
    3.4580    1.1440    0.2020 H   0  0  0  0  0  0  0  0  0  0  0  0
    6.3730   -1.5520   -2.9460 H   0  0  0  0  0  0  0  0  0  0  0  0
    8.2380   -0.8850    0.8350 H   0  0  0  0  0  0  0  0  0  0  0  0
   -3.4720   -0.5140   -1.2460 H   0  0  0  0  0  0  0  0  0  0  0  0
   -5.3860   -0.1750    1.1070 H   0  0  0  0  0  0  0  0  0  0  0  0
   -5.7060   -1.1630   -0.3380 H   0  0  0  0  0  0  0  0  0  0  0  0
   -3.3430   -1.5680    1.5640 H   0  0  0  0  0  0  0  0  0  0  0  0
   -4.2270   -2.8180   -1.0560 H   0  0  0  0  0  0  0  0  0  0  0  0
   -2.5750   -2.6740   -0.3700 H   0  0  0  0  0  0  0  0  0  0  0  0
   -0.7720    1.0720    1.8790 H   0  0  0  0  0  0  0  0  0  0  0  0
   -1.8000    3.4590    1.0120 H   0  0  0  0  0  0  0  0  0  0  0  0
    3.7720   -0.7680    1.6690 H   0  0  0  0  0  0  0  0  0  0  0  0
   -5.3220    1.7680   -0.4240 H   0  0  0  0  0  0  0  0  0  0  0  0
   -3.1980    2.5300   -1.2090 H   0  0  0  0  0  0  0  0  0  0  0  0
   -7.3690   -0.4310   -2.4590 H   0  0  0  0  0  0  0  0  0  0  0  0
   -7.0610    0.0150   -0.8690 H   0  0  0  0  0  0  0  0  0  0  0  0
   -4.0510   -5.0180   -0.2250 H   0  0  0  0  0  0  0  0  0  0  0  0
   -2.8530   -4.5520    1.0180 H   0  0  0  0  0  0  0  0  0  0  0  0
   -5.3440   -4.8440    1.9040 H   0  0  0  0  0  0  0  0  0  0  0  0
 32 33  1  0  0  0  0
 32 34  2  0  0  0  0
 30 32  1  0  0  0  0
 30 31  1  0  0  0  0
 11 30  1  0  0  0  0
  4  6  1  0  0  0  0
  2 11  1  0  0  0  0
 11 12  1  0  0  0  0
  2 17  1  0  0  0  0
  4 19  1  0  0  0  0
  3 19  1  0  0  0  0
 18 19  1  0  0  0  0
 12 13  1  0  0  0  0
  3  4  1  0  0  0  0
  4  5  1  0  0  0  0
 16 17  2  0  0  0  0
 17 18  1  0  0  0  0
  3  7  1  0  0  0  0
  1 18  1  0  0  0  0
 13 14  1  0  0  0  0
 13 15  1  0  0  0  0
 14 35  1  0  0  0  0
 15 37  2  0  0  0  0
  1  7  1  0  0  0  0
  1 20  1  0  0  0  0
 15 36  1  0  0  0  0
 35 36  1  0  0  0  0
 20 29  2  0  0  0  0
  8 20  1  0  0  0  0
  8 21  1  0  0  0  0
 21 22  1  0  0  0  0
 27 28  1  0  0  0  0
 22 27  2  0  0  0  0
 22 23  1  0  0  0  0
 10 27  1  0  0  0  0
 23 24  1  0  0  0  0
  9 23  2  0  0  0  0
 10 25  2  0  0  0  0
  9 25  1  0  0  0  0
 25 26  1  0  0  0  0
  2 38  1  0  0  0  0
  3 39  1  0  0  0  0
  5 40  1  0  0  0  0
  5 41  1  0  0  0  0
  5 42  1  0  0  0  0
  6 43  1  0  0  0  0
  6 44  1  0  0  0  0
  6 45  1  0  0  0  0
  7 46  1  0  0  0  0
  7 47  1  0  0  0  0
  8 48  1  0  0  0  0
  8 49  1  0  0  0  0
  9 50  1  0  0  0  0
 10 51  1  0  0  0  0
 11 52  1  0  0  0  0
 12 53  1  0  0  0  0
 12 54  1  0  0  0  0
 13 55  1  0  0  0  0
 14 56  1  0  0  0  0
 14 57  1  0  0  0  0
 18 58  1  0  0  0  0
 19 59  1  0  0  0  0
 21 60  1  0  0  0  0
 30 61  1  0  0  0  0
 31 62  1  0  0  0  0
 33 63  1  0  0  0  0
 33 64  1  0  0  0  0
 35 65  1  0  0  0  0
 35 66  1  0  0  0  0
 36 67  1  0  0  0  0
M  END
> <OPENEYE_ISO_SMILES>
CC1([C@@H]2[C@H]1[C@H](N(C2)C(=O)CNc3c(cc(cc3F)F)F)C(=O)N[C@@H](C[C@@H]4CCNC4=O)[C@H](C(=O)N)O)C

> <OPENEYE_INCHI>
InChI=1S/C24H30F3N5O5/c1-24(2)12-9-32(16(33)8-30-18-13(26)6-11(25)7-14(18)27)19(17(12)24)23(37)31-15(20(34)21(28)35)5-10-3-4-29-22(10)36/h6-7,10,12,15,17,19-20,30,34H,3-5,8-9H2,1-2H3,(H2,28,35)(H,29,36)(H,31,37)/t10-,12-,15-,17-,19-,20+/m0/s1

> <OPENEYE_INCHIKEY>
YNUIIZLFVOREIR-NZIQIWATSA-N

> <FORMULA>
C24H30F3N5O5

$$$$
