@<TRIPOS>MOLECULE
/home/pku/3cl/gett_pdb/5S2F/5S2F_mol2/ligand/5S2F_K0G.pdb
 16 17 0 0 0
SMALL
GASTEIGER

@<TRIPOS>ATOM
      1  N1        -6.5060   14.8920    2.7750 N.am  501  K0G501     -0.1591
      2  C4       -10.1090   17.7120    7.1500 C.ar  501  K0G501      0.0001
      3  C5        -9.5630   16.5200    7.6020 C.ar  501  K0G501      0.0013
      4  C6        -8.8150   15.7230    6.7470 C.ar  501  K0G501      0.0167
      5  C7        -6.0430   14.9040    1.4480 C.ar  501  K0G501      0.0941
      6  C8        -4.6920   15.1200    1.1940 C.ar  501  K0G501      0.0198
      7  C10       -5.1710   15.0190   -1.1230 C.ar  501  K0G501      0.0990
      8  N         -7.7880   15.3160    4.5990 N.am  501  K0G501     -0.1607
      9  C         -7.7310   15.2860    3.2270 C.2   501  K0G501      0.3478
     10  O         -8.6550   15.6060    2.4840 O.2   501  K0G501     -0.2484
     11  C1        -8.6040   16.1250    5.4300 C.ar  501  K0G501      0.0750
     12  C11       -6.8950   14.7620    0.3570 C.ar  501  K0G501      0.1154
     13  C2        -9.1560   17.3230    4.9790 C.ar  501  K0G501      0.0167
     14  C3        -9.9150   18.1040    5.8370 C.ar  501  K0G501      0.0013
     15  C9        -4.2500   15.1720   -0.1130 C.ar  501  K0G501      0.0220
     16  N2        -6.4830   14.8280   -0.9120 N.ar  501  K0G501     -0.2410
@<TRIPOS>BOND
     1     7    16   ar
     2     7    15   ar
     3    16    12   ar
     4    15     6   ar
     5    12     5   ar
     6     6     5   ar
     7     5     1    1
     8    10     9    2
     9     1     9   am
    10     9     8   am
    11     8    11    1
    12    13    11   ar
    13    13    14   ar
    14    11     4   ar
    15    14     2   ar
    16     4     3   ar
    17     2     3   ar
