@<TRIPOS>MOLECULE
/home/pku/3cl/gett_pdb/5RUD/5RUD_mol2/ligand/5RUD_2D0.pdb
 16 17 0 0 0
SMALL
GASTEIGER

@<TRIPOS>ATOM
      1  C1       -49.1290  -29.1300    5.3200 C.ar  201  2D0201      0.0985
      2  C2       -47.8940  -29.4090    5.8830 C.ar  201  2D0201      0.0422
      3  C3       -49.2500  -28.9680    3.9330 C.ar  201  2D0201      0.0674
      4  C4       -46.7710  -29.5330    5.0550 C.ar  201  2D0201     -0.0458
      5  C5       -48.1430  -29.0610    3.1220 C.ar  201  2D0201     -0.0413
      6  C6       -46.8990  -29.3520    3.6820 C.ar  201  2D0201     -0.0592
      7  N7       -50.2430  -29.0410    6.2360 N.ar  201  2D0201     -0.2237
      8  C8       -49.7920  -29.2550    7.5160 C.ar  201  2D0201      0.1567
      9  S9       -48.1350  -29.5660    7.5260 S.2   201  2D0201     -0.0526
     10  N10      -50.6370  -29.2370    8.6770 N.pl3 201  2D0201     -0.3375
     11 CL1       -50.8370  -28.5930    3.2440 Cl    201  2D0201     -0.0813
     12  H1       -45.9380  -29.7190    5.4250 H     201  2D0201      0.0629
     13  H2       -48.2140  -28.9450    2.2040 H     201  2D0201      0.0633
     14  H3       -46.1510  -29.4240    3.1340 H     201  2D0201      0.0618
     15  H4       -50.3580  -28.8770    9.4060 H     201  2D0201      0.1442
     16  H5       -51.4220  -29.5860    8.6430 H     201  2D0201      0.1442
@<TRIPOS>BOND
     1    13     5    1
     2     5     6   ar
     3     5     3   ar
     4    14     6    1
     5    11     3    1
     6     6     4   ar
     7     3     1   ar
     8     4    12    1
     9     4     2   ar
    10     1     2   ar
    11     1     7   ar
    12     2     9   ar
    13     7     8   ar
    14     8     9   ar
    15     8    10    1
    16    16    10    1
    17    10    15    1
