MYC
  -OEChem-02242320033D

 33 35  0     0  0  0  0  0  0999 V2000
    0.5320    0.1460    4.7410 C   0  0  0  0  0  0  0  0  0  0  0  0
   -0.5820   -0.0990    3.9620 C   0  0  0  0  0  0  0  0  0  0  0  0
   -0.4640   -0.0850    2.5660 C   0  0  0  0  0  0  0  0  0  0  0  0
    0.7770    0.1760    1.9630 C   0  0  0  0  0  0  0  0  0  0  0  0
    1.8830    0.4260    2.7610 C   0  0  0  0  0  0  0  0  0  0  0  0
    1.7610    0.4050    4.1420 C   0  0  0  0  0  0  0  0  0  0  0  0
   -1.6260   -0.3410    1.7000 C   0  0  0  0  0  0  0  0  0  0  0  0
   -1.4150   -0.3070    0.2970 C   0  0  0  0  0  0  0  0  0  0  0  0
   -0.1690   -0.0440   -0.1860 C   0  0  0  0  0  0  0  0  0  0  0  0
    0.0320   -0.0120   -1.6460 C   0  0  0  0  0  0  0  0  0  0  0  0
   -0.8490    0.7030   -2.4600 C   0  0  0  0  0  0  0  0  0  0  0  0
   -0.6570    0.7300   -3.8290 C   0  0  0  0  0  0  0  0  0  0  0  0
    0.4130    0.0460   -4.3970 C   0  0  0  0  0  0  0  0  0  0  0  0
    1.2940   -0.6670   -3.5890 C   0  0  0  0  0  0  0  0  0  0  0  0
    1.1100   -0.6940   -2.2190 C   0  0  0  0  0  0  0  0  0  0  0  0
    0.8810    0.1870    0.6170 O   0  0  0  0  0  0  0  0  0  0  0  0
   -2.7290   -0.5740    2.1700 O   0  0  0  0  0  0  0  0  0  0  0  0
    2.3390   -1.3350   -4.1470 O   0  0  0  0  0  0  0  0  0  0  0  0
    0.6000    0.0750   -5.7430 O   0  0  0  0  0  0  0  0  0  0  0  0
   -1.5140    1.4270   -4.6220 O   0  0  0  0  0  0  0  0  0  0  0  0
   -2.4490   -0.5360   -0.5570 O   0  0  0  0  0  0  0  0  0  0  0  0
    2.8490    0.6450    4.9170 O   0  0  0  0  0  0  0  0  0  0  0  0
   -1.7810   -0.3510    4.5450 O   0  0  0  0  0  0  0  0  0  0  0  0
    0.4500    0.1370    5.8180 H   0  0  0  0  0  0  0  0  0  0  0  0
    2.8410    0.6330    2.3080 H   0  0  0  0  0  0  0  0  0  0  0  0
   -1.6800    1.2340   -2.0210 H   0  0  0  0  0  0  0  0  0  0  0  0
    1.7930   -1.2480   -1.5920 H   0  0  0  0  0  0  0  0  0  0  0  0
    3.0830   -0.7180   -4.1720 H   0  0  0  0  0  0  0  0  0  0  0  0
    1.1680    0.8350   -5.9300 H   0  0  0  0  0  0  0  0  0  0  0  0
   -1.1610    2.3240   -4.6950 H   0  0  0  0  0  0  0  0  0  0  0  0
   -3.2310   -0.7000   -0.0120 H   0  0  0  0  0  0  0  0  0  0  0  0
    3.2680   -0.2100    5.0840 H   0  0  0  0  0  0  0  0  0  0  0  0
   -2.2220    0.5010    4.6570 H   0  0  0  0  0  0  0  0  0  0  0  0
  1  2  2  0  0  0  0
  1  6  1  0  0  0  0
  1 24  1  0  0  0  0
  2  3  1  0  0  0  0
  2 23  1  0  0  0  0
  3  4  2  0  0  0  0
  3  7  1  0  0  0  0
  4  5  1  0  0  0  0
  4 16  1  0  0  0  0
  5  6  2  0  0  0  0
  5 25  1  0  0  0  0
  6 22  1  0  0  0  0
  7  8  1  0  0  0  0
  7 17  2  0  0  0  0
  8  9  2  0  0  0  0
  8 21  1  0  0  0  0
  9 10  1  0  0  0  0
  9 16  1  0  0  0  0
 10 11  2  0  0  0  0
 10 15  1  0  0  0  0
 11 12  1  0  0  0  0
 11 26  1  0  0  0  0
 12 13  2  0  0  0  0
 12 20  1  0  0  0  0
 13 14  1  0  0  0  0
 13 19  1  0  0  0  0
 14 15  2  0  0  0  0
 14 18  1  0  0  0  0
 15 27  1  0  0  0  0
 18 28  1  0  0  0  0
 19 29  1  0  0  0  0
 20 30  1  0  0  0  0
 21 31  1  0  0  0  0
 22 32  1  0  0  0  0
 23 33  1  0  0  0  0
M  END
> <OPENEYE_ISO_SMILES>
c1c(cc(c(c1O)O)O)c2c(c(=O)c3c(cc(cc3o2)O)O)O

> <OPENEYE_INCHI>
InChI=1S/C15H10O8/c16-6-3-7(17)11-10(4-6)23-15(14(22)13(11)21)5-1-8(18)12(20)9(19)2-5/h1-4,16-20,22H

> <OPENEYE_INCHIKEY>
IKMDFBPHZNJCSN-UHFFFAOYSA-N

> <FORMULA>
C15H10O8

$$$$
