U7W
  -OEChem-02242320043D

 38 41  0     1  0  0  0  0  0999 V2000
    4.1910    0.1860    1.5610 C   0  0  0  0  0  0  0  0  0  0  0  0
   -3.9110    2.5950    0.2540 C   0  0  0  0  0  0  0  0  0  0  0  0
    5.1110    1.0640    1.1750 C   0  0  0  0  0  0  0  0  0  0  0  0
    3.3750    0.5250   -0.5560 C   0  0  0  0  0  0  0  0  0  0  0  0
   -4.4990   -0.1140    0.1870 C   0  0  0  0  0  0  0  0  0  0  0  0
    2.4640    0.3850   -1.7570 C   0  0  0  0  0  0  0  0  0  0  0  0
    1.6490   -0.9050   -1.6180 C   0  0  0  0  0  0  0  0  0  0  0  0
   -0.1950   -0.9340   -0.0010 C   0  0  0  0  0  0  0  0  0  0  0  0
   -1.1660   -0.7940   -1.1450 C   0  0  0  0  0  0  0  0  0  0  0  0
   -5.4530    0.8070    0.6390 C   0  0  0  0  0  0  0  0  0  0  0  0
   -5.1530    2.1370    0.6740 C   0  0  0  0  0  0  0  0  0  0  0  0
    1.1300   -0.9850   -0.2450 N   0  0  0  0  0  0  0  0  0  0  0  0
   -2.5340   -0.7620   -0.6230 N   0  0  0  0  0  0  0  0  0  0  0  0
    3.2250   -0.1300    0.6110 C   0  0  0  0  0  0  0  0  0  0  0  0
   -3.3770   -1.8630   -0.4110 N   0  0  0  0  0  0  0  0  0  0  0  0
    2.6520   -2.5470    0.8820 C   0  0  0  0  0  0  0  0  0  0  0  0
    2.0940   -1.1220    0.8560 C   0  0  2  0  0  0  0  0  0  0  0  0
    4.7880    1.5700   -0.4760 S   0  0  0  0  0  0  0  0  0  0  0  0
   -0.6050   -1.0020    1.1380 O   0  0  0  0  0  0  0  0  0  0  0  0
   -4.5040   -1.4560    0.0570 N   0  0  0  0  0  0  0  0  0  0  0  0
   -2.9600    1.7120   -0.2060 C   0  0  0  0  0  0  0  0  0  0  0  0
   -3.2450    0.3520   -0.2430 C   0  0  0  0  0  0  0  0  0  0  0  0
    4.1960   -0.2570    2.5450 H   0  0  0  0  0  0  0  0  0  0  0  0
   -3.6910    3.6520    0.2840 H   0  0  0  0  0  0  0  0  0  0  0  0
    5.9320    1.4140    1.7840 H   0  0  0  0  0  0  0  0  0  0  0  0
    1.7900    1.2390   -1.8050 H   0  0  0  0  0  0  0  0  0  0  0  0
    3.0640    0.3410   -2.6660 H   0  0  0  0  0  0  0  0  0  0  0  0
    0.8180   -0.8900   -2.3230 H   0  0  0  0  0  0  0  0  0  0  0  0
    2.2860   -1.7650   -1.8230 H   0  0  0  0  0  0  0  0  0  0  0  0
   -0.9610    0.1320   -1.6840 H   0  0  0  0  0  0  0  0  0  0  0  0
   -1.0550   -1.6400   -1.8220 H   0  0  0  0  0  0  0  0  0  0  0  0
   -6.4210    0.4620    0.9730 H   0  0  0  0  0  0  0  0  0  0  0  0
   -5.8890    2.8410    1.0330 H   0  0  0  0  0  0  0  0  0  0  0  0
    3.1520   -2.7590   -0.0630 H   0  0  0  0  0  0  0  0  0  0  0  0
    3.3660   -2.6420    1.7000 H   0  0  0  0  0  0  0  0  0  0  0  0
    1.8360   -3.2540    1.0280 H   0  0  0  0  0  0  0  0  0  0  0  0
    1.6060   -0.8990    1.8050 H   0  0  0  0  0  0  0  0  0  0  0  0
   -1.9970    2.0740   -0.5360 H   0  0  0  0  0  0  0  0  0  0  0  0
 15 20  2  0  0  0  0
  5 20  1  0  0  0  0
  5 10  2  0  0  0  0
 10 11  1  0  0  0  0
 13 15  1  0  0  0  0
  5 22  1  0  0  0  0
  2 11  2  0  0  0  0
 13 22  1  0  0  0  0
  9 13  1  0  0  0  0
 21 22  2  0  0  0  0
  2 21  1  0  0  0  0
  8  9  1  0  0  0  0
  8 19  2  0  0  0  0
  8 12  1  0  0  0  0
  4 18  1  0  0  0  0
  3 18  1  0  0  0  0
  4  6  1  0  0  0  0
  6  7  1  0  0  0  0
 12 17  1  0  0  0  0
  7 12  1  0  0  0  0
  4 14  2  0  0  0  0
 14 17  1  0  0  0  0
  1 14  1  0  0  0  0
  1  3  2  0  0  0  0
 16 17  1  0  0  0  0
  1 23  1  0  0  0  0
  2 24  1  0  0  0  0
  3 25  1  0  0  0  0
  6 26  1  0  0  0  0
  6 27  1  0  0  0  0
  7 28  1  0  0  0  0
  7 29  1  0  0  0  0
  9 30  1  0  0  0  0
  9 31  1  0  0  0  0
 10 32  1  0  0  0  0
 11 33  1  0  0  0  0
 16 34  1  0  0  0  0
 16 35  1  0  0  0  0
 16 36  1  0  0  0  0
 17 37  1  0  0  0  0
 21 38  1  0  0  0  0
M  END
> <OPENEYE_ISO_SMILES>
C[C@H]1c2ccsc2CCN1C(=O)Cn3c4ccccc4nn3

> <OPENEYE_INCHI>
InChI=1S/C16H16N4OS/c1-11-12-7-9-22-15(12)6-8-19(11)16(21)10-20-14-5-3-2-4-13(14)17-18-20/h2-5,7,9,11H,6,8,10H2,1H3/t11-/m0/s1

> <OPENEYE_INCHIKEY>
IIZZXFYIZNJNIS-NSHDSACASA-N

> <FORMULA>
C16H16N4OS

$$$$
