GQJ
  -OEChem-02242320023D

 30 31  0     1  0  0  0  0  0999 V2000
    0.7250    0.6390   -0.5330 C   0  0  0  0  0  0  0  0  0  0  0  0
    4.2850    1.1860    0.0600 C   0  0  0  0  0  0  0  0  0  0  0  0
   -4.1570    2.1070    0.3500 C   0  0  0  0  0  0  0  0  0  0  0  0
   -2.2600    0.6760    0.1640 C   0  0  0  0  0  0  0  0  0  0  0  0
   -1.5120   -0.4890   -0.4310 C   0  0  2  0  0  0  0  0  0  0  0  0
   -2.0020   -1.8070    0.2050 C   0  0  0  0  0  0  0  0  0  0  0  0
   -0.6960   -2.6330    0.3420 C   0  0  2  0  0  0  0  0  0  0  0  0
    0.3370   -1.5280    0.6750 C   0  0  0  0  0  0  0  0  0  0  0  0
    2.1440    0.6360   -0.1630 C   0  0  0  0  0  0  0  0  0  0  0  0
    3.0630    1.5880   -0.5000 C   0  0  0  0  0  0  0  0  0  0  0  0
    4.0620    0.0200    0.7070 C   0  0  0  0  0  0  0  0  0  0  0  0
   -0.0780   -0.3670   -0.1330 N   0  0  0  0  0  0  0  0  0  0  0  0
   -3.4960    0.9710   -0.2680 O   0  0  0  0  0  0  0  0  0  0  0  0
   -0.3710   -3.2860   -0.8870 O   0  0  0  0  0  0  0  0  0  0  0  0
    2.7700   -0.3080    0.5700 O   0  0  0  0  0  0  0  0  0  0  0  0
    0.2710    1.5520   -1.1970 O   0  0  0  0  0  0  0  0  0  0  0  0
   -1.7480    1.3440    1.0310 O   0  0  0  0  0  0  0  0  0  0  0  0
    5.2280    1.7070   -0.0150 H   0  0  0  0  0  0  0  0  0  0  0  0
   -4.2560    1.9310    1.4210 H   0  0  0  0  0  0  0  0  0  0  0  0
   -3.5650    3.0070    0.1830 H   0  0  0  0  0  0  0  0  0  0  0  0
   -5.1460    2.2360   -0.0900 H   0  0  0  0  0  0  0  0  0  0  0  0
   -1.6680   -0.5180   -1.5090 H   0  0  0  0  0  0  0  0  0  0  0  0
   -2.4460   -1.6220    1.1830 H   0  0  0  0  0  0  0  0  0  0  0  0
   -2.7110   -2.3120   -0.4520 H   0  0  0  0  0  0  0  0  0  0  0  0
   -0.7730   -3.3540    1.1560 H   0  0  0  0  0  0  0  0  0  0  0  0
    0.3020   -1.2830    1.7370 H   0  0  0  0  0  0  0  0  0  0  0  0
    1.3400   -1.8490    0.3940 H   0  0  0  0  0  0  0  0  0  0  0  0
    2.8840    2.4780   -1.0850 H   0  0  0  0  0  0  0  0  0  0  0  0
    4.8020   -0.5520    1.2460 H   0  0  0  0  0  0  0  0  0  0  0  0
    0.4380   -3.8140   -0.8500 H   0  0  0  0  0  0  0  0  0  0  0  0
  2 10  1  0  0  0  0
  2 11  2  0  0  0  0
  9 10  2  0  0  0  0
 11 15  1  0  0  0  0
  1 16  2  0  0  0  0
  1  9  1  0  0  0  0
  9 15  1  0  0  0  0
  1 12  1  0  0  0  0
  3 13  1  0  0  0  0
  4 13  1  0  0  0  0
  4 17  2  0  0  0  0
  4  5  1  0  0  0  0
  5 12  1  0  0  0  0
  8 12  1  0  0  0  0
  5  6  1  0  0  0  0
  7  8  1  0  0  0  0
  6  7  1  0  0  0  0
  7 14  1  0  0  0  0
  2 18  1  0  0  0  0
  3 19  1  0  0  0  0
  3 20  1  0  0  0  0
  3 21  1  0  0  0  0
  5 22  1  0  0  0  0
  6 23  1  0  0  0  0
  6 24  1  0  0  0  0
  7 25  1  0  0  0  0
  8 26  1  0  0  0  0
  8 27  1  0  0  0  0
 10 28  1  0  0  0  0
 11 29  1  0  0  0  0
 14 30  1  0  0  0  0
M  END
> <OPENEYE_ISO_SMILES>
COC(=O)[C@@H]1C[C@H](CN1C(=O)c2ccco2)O

> <OPENEYE_INCHI>
InChI=1S/C11H13NO5/c1-16-11(15)8-5-7(13)6-12(8)10(14)9-3-2-4-17-9/h2-4,7-8,13H,5-6H2,1H3/t7-,8+/m1/s1

> <OPENEYE_INCHIKEY>
GVYWVRYDCMRUCE-SFYZADRCSA-N

> <FORMULA>
C11H13NO5

$$$$
