JRY
  -OEChem-02242320033D

 25 24  0     0  0  0  0  0  0999 V2000
   -3.2610   -0.0060   -0.0020 C   0  0  0  0  0  0  0  0  0  0  0  0
   -0.8510   -0.3660   -0.0000 C   0  0  0  0  0  0  0  0  0  0  0  0
    0.4260    0.4760   -0.0010 C   0  0  0  0  0  0  0  0  0  0  0  0
    1.6460   -0.4480    0.0000 C   0  0  0  0  0  0  0  0  0  0  0  0
    2.9230    0.3940   -0.0000 C   0  0  0  0  0  0  0  0  0  0  0  0
    4.1430   -0.5290    0.0010 C   0  0  0  0  0  0  0  0  0  0  0  0
    5.4200    0.3130    0.0010 C   0  0  0  0  0  0  0  0  0  0  0  0
   -2.0200    0.5180   -0.0020 N   0  0  0  0  0  0  0  0  0  0  0  0
   -3.4120   -1.2120   -0.0000 O   0  0  0  0  0  0  0  0  0  0  0  0
   -4.3350    0.8070    0.0030 O   0  0  0  0  0  0  0  0  0  0  0  0
   -0.8720   -0.9970   -0.8900 H   0  0  0  0  0  0  0  0  0  0  0  0
    0.4470    1.1040   -0.8920 H   0  0  0  0  0  0  0  0  0  0  0  0
    1.6250   -1.0760    0.8910 H   0  0  0  0  0  0  0  0  0  0  0  0
    1.6250   -1.0780   -0.8890 H   0  0  0  0  0  0  0  0  0  0  0  0
    2.9440    1.0220   -0.8910 H   0  0  0  0  0  0  0  0  0  0  0  0
    2.9430    1.0250    0.8890 H   0  0  0  0  0  0  0  0  0  0  0  0
    4.1220   -1.1570    0.8920 H   0  0  0  0  0  0  0  0  0  0  0  0
    4.1230   -1.1590   -0.8880 H   0  0  0  0  0  0  0  0  0  0  0  0
    5.4410    0.9410   -0.8900 H   0  0  0  0  0  0  0  0  0  0  0  0
    5.4400    0.9430    0.8900 H   0  0  0  0  0  0  0  0  0  0  0  0
    6.2890   -0.3450    0.0020 H   0  0  0  0  0  0  0  0  0  0  0  0
   -1.8990    1.4800   -0.0030 H   0  0  0  0  0  0  0  0  0  0  0  0
   -5.2050    0.3850    0.0070 H   0  0  0  0  0  0  0  0  0  0  0  0
   -0.8720   -0.9940    0.8900 H   0  0  0  0  0  0  0  0  0  0  0  0
    0.4460    1.1060    0.8880 H   0  0  0  0  0  0  0  0  0  0  0  0
  1  9  2  0  0  0  0
  1  8  1  0  0  0  0
  2  8  1  0  0  0  0
  2  3  1  0  0  0  0
  3  4  1  0  0  0  0
  4  5  1  0  0  0  0
  5  6  1  0  0  0  0
  6  7  1  0  0  0  0
  1 10  1  0  0  0  0
  2 11  1  0  0  0  0
  3 12  1  0  0  0  0
  4 13  1  0  0  0  0
  4 14  1  0  0  0  0
  5 15  1  0  0  0  0
  5 16  1  0  0  0  0
  6 17  1  0  0  0  0
  6 18  1  0  0  0  0
  7 19  1  0  0  0  0
  7 20  1  0  0  0  0
  7 21  1  0  0  0  0
  8 22  1  0  0  0  0
 10 23  1  0  0  0  0
  2 24  1  0  0  0  0
  3 25  1  0  0  0  0
M  END
> <OPENEYE_ISO_SMILES>
CCCCCCNC(=O)O

> <OPENEYE_INCHI>
InChI=1S/C7H15NO2/c1-2-3-4-5-6-8-7(9)10/h8H,2-6H2,1H3,(H,9,10)

> <OPENEYE_INCHIKEY>
YAQPZDICKJDHTR-UHFFFAOYSA-N

> <FORMULA>
C7H15NO2

$$$$
