@<TRIPOS>MOLECULE
/home/pku/3cl/gett_pdb/5RTQ/5RTQ_mol2/ligand/5RTQ_4JO.pdb
 16 16 0 0 0
SMALL
GASTEIGER

@<TRIPOS>ATOM
      1 BR        -49.2540  -29.0540    8.0180 Br    201  4JO201     -0.0484
      2  C5       -49.4260  -28.9750    6.1060 C.ar  201  4JO201      0.0390
      3  C1       -50.6340  -29.1790    5.4470 C.ar  201  4JO201      0.0542
      4  C        -51.8770  -29.5200    6.2620 C.3   201  4JO201     -0.0212
      5  C4       -48.3080  -28.6650    5.3510 C.ar  201  4JO201     -0.0428
      6  C3       -48.4330  -28.6150    3.9860 C.ar  201  4JO201     -0.0210
      7  C2       -49.6660  -28.8190    3.4070 C.ar  201  4JO201      0.1165
      8  N        -50.7150  -29.1000    4.1400 N.ar  201  4JO201     -0.2365
      9  N1       -49.7830  -28.7130    1.9750 N.pl3 201  4JO201     -0.3431
     10  H1       -52.0690  -28.7950    6.8770 H     201  4JO201      0.0293
     11  H2       -52.6310  -29.6460    5.6650 H     201  4JO201      0.0293
     12  H3       -51.7210  -30.3360    6.7630 H     201  4JO201      0.0293
     13  H4       -47.4850  -28.5190    5.7580 H     201  4JO201      0.0630
     14  H5       -47.7000  -28.3940    3.4580 H     201  4JO201      0.0652
     15  H6       -50.4570  -28.2840    1.6420 H     201  4JO201      0.1437
     16  H7       -49.0810  -28.8860    1.5000 H     201  4JO201      0.1437
@<TRIPOS>BOND
     1    16     9    1
     2    15     9    1
     3     9     7    1
     4     7     6   ar
     5     7     8   ar
     6    14     6    1
     7     6     5   ar
     8     8     3   ar
     9     5    13    1
    10     5     2   ar
    11     3     2   ar
    12     3     4    1
    13    11     4    1
    14     2     1    1
    15     4    12    1
    16     4    10    1
