@<TRIPOS>MOLECULE
/home/pku/3cl/gett_pdb/5S29/5S29_mol2/ligand/5S29_WRY.pdb
 16 17 0 0 0
SMALL
GASTEIGER

@<TRIPOS>ATOM
      1  N1        -8.0040   14.7170    4.9620 N.am  201  WRY201     -0.1997
      2  C4        -3.9580   14.9660   -0.7650 C.ar  201  WRY201      0.1416
      3  C5        -3.3040   15.1720    0.4150 C.ar  201  WRY201      0.0297
      4  C6        -4.0120   15.1580    1.5720 C.ar  201  WRY201      0.0038
      5  C7        -5.4060   14.9530    1.5640 C.ar  201  WRY201      0.0180
      6  C8        -6.2050   15.0570    2.7090 C.ar  201  WRY201      0.0072
      7  C10       -8.3720   15.3000    3.8230 C.2   201  WRY201      0.2660
      8  O         -9.2990   16.1030    3.7670 O.2   201  WRY201     -0.2683
      9  C11       -8.6860   14.9760    6.2170 C.3   201  WRY201      0.1388
     10  C9        -7.5660   14.9500    2.6070 C.ar  201  WRY201      0.0686
     11  C1        -8.1540   14.8080    1.3140 C.ar  201  WRY201      0.0637
     12  C         -9.6360   14.7620    1.0880 C.3   201  WRY201      0.0522
     13  C2        -6.0480   14.7240    0.3380 C.ar  201  WRY201      0.0831
     14  N         -7.4160   14.6510    0.2290 N.ar  201  WRY201     -0.2494
     15  F         -3.2820   15.1950   -1.9210 F     201  WRY201     -0.2041
     16  C3        -5.2760   14.6900   -0.8440 C.ar  201  WRY201      0.0487
@<TRIPOS>BOND
     1    15     2    1
     2    16     2   ar
     3    16    13   ar
     4     2     3   ar
     5    14    13   ar
     6    14    11   ar
     7    13     5   ar
     8     3     4   ar
     9    12    11    1
    10    11    10   ar
    11     5     4   ar
    12     5     6   ar
    13    10     6   ar
    14    10     7    1
    15     8     7    2
    16     7     1   am
    17     1     9    1
