XYJ
  -OEChem-02242320043D

 54 56  0     0  0  0  0  0  0999 V2000
   -1.6570    2.0310   -0.1870 C   0  0  0  0  0  0  0  0  0  0  0  0
   -4.4460    0.4030   -0.0230 C   0  0  0  0  0  0  0  0  0  0  0  0
   -6.4550   -2.7140    2.1400 C   0  0  0  0  0  0  0  0  0  0  0  0
   -6.8580   -2.4090   -0.6680 C   0  0  0  0  0  0  0  0  0  0  0  0
    7.6880    0.5220    1.3040 C   0  0  0  0  0  0  0  0  0  0  0  0
    4.8090   -1.6800   -0.8560 C   0  0  0  0  0  0  0  0  0  0  0  0
    4.4080   -0.4480   -0.1760 C   0  0  0  0  0  0  0  0  0  0  0  0
    5.3720    0.2590    0.5280 C   0  0  0  0  0  0  0  0  0  0  0  0
    3.4310    1.2940    0.6780 C   0  0  0  0  0  0  0  0  0  0  0  0
    0.7640    1.7530    0.2710 C   0  0  0  0  0  0  0  0  0  0  0  0
   -0.4640    2.6330    0.5100 C   0  0  0  0  0  0  0  0  0  0  0  0
   -5.6470   -0.3120   -0.6470 C   0  0  0  0  0  0  0  0  0  0  0  0
   -6.2900   -1.3630    1.4380 C   0  0  0  0  0  0  0  0  0  0  0  0
   -7.0180   -3.7500    0.0540 C   0  0  0  0  0  0  0  0  0  0  0  0
    6.9940   -1.3540   -0.0740 C   0  0  0  0  0  0  0  0  0  0  0  0
    6.5230   -3.3050   -1.4410 C   0  0  0  0  0  0  0  0  0  0  0  0
    4.7450    1.3480    1.0570 N   0  0  0  0  0  0  0  0  0  0  0  0
   -2.8580    2.6390   -0.1140 N   0  0  0  0  0  0  0  0  0  0  0  0
   -5.8720   -1.5870    0.0470 N   0  0  0  0  0  0  0  0  0  0  0  0
    3.2350    0.2260   -0.0540 N   0  0  0  0  0  0  0  0  0  0  0  0
    6.6630   -0.2180    0.5630 N   0  0  0  0  0  0  0  0  0  0  0  0
    6.0980   -2.0740   -0.7690 N   0  0  0  0  0  0  0  0  0  0  0  0
    3.9970   -2.3380   -1.4820 O   0  0  0  0  0  0  0  0  0  0  0  0
   -7.3950   -3.5110    1.4130 O   0  0  0  0  0  0  0  0  0  0  0  0
   -3.7200    1.7500   -2.2090 O   0  0  0  0  0  0  0  0  0  0  0  0
   -5.2270    2.8860   -0.6100 O   0  0  0  0  0  0  0  0  0  0  0  0
   -1.5360    1.0020   -0.8170 O   0  0  0  0  0  0  0  0  0  0  0  0
    8.1450   -1.7430   -0.0210 O   0  0  0  0  0  0  0  0  0  0  0  0
    2.1970    2.4760    1.1080 S   0  0  0  0  0  0  0  0  0  0  0  0
   -4.1680    1.9780   -0.8800 S   0  0  0  0  0  0  0  0  0  0  0  0
   -4.6440    0.5930    1.0310 H   0  0  0  0  0  0  0  0  0  0  0  0
   -3.5600   -0.2240   -0.1190 H   0  0  0  0  0  0  0  0  0  0  0  0
   -5.4940   -3.2260    2.1750 H   0  0  0  0  0  0  0  0  0  0  0  0
   -6.8200   -2.5550    3.1550 H   0  0  0  0  0  0  0  0  0  0  0  0
   -6.5160   -2.5840   -1.6880 H   0  0  0  0  0  0  0  0  0  0  0  0
   -7.8170   -1.8910   -0.6900 H   0  0  0  0  0  0  0  0  0  0  0  0
    7.7200    0.1670    2.3330 H   0  0  0  0  0  0  0  0  0  0  0  0
    8.6590    0.3650    0.8350 H   0  0  0  0  0  0  0  0  0  0  0  0
    7.4470    1.5850    1.2930 H   0  0  0  0  0  0  0  0  0  0  0  0
    0.5780    0.7540    0.6660 H   0  0  0  0  0  0  0  0  0  0  0  0
    0.9620    1.6890   -0.7990 H   0  0  0  0  0  0  0  0  0  0  0  0
   -0.2780    3.6320    0.1140 H   0  0  0  0  0  0  0  0  0  0  0  0
   -0.6630    2.6970    1.5800 H   0  0  0  0  0  0  0  0  0  0  0  0
   -6.5330    0.3150   -0.5510 H   0  0  0  0  0  0  0  0  0  0  0  0
   -5.4480   -0.5020   -1.7020 H   0  0  0  0  0  0  0  0  0  0  0  0
   -7.2400   -0.8280    1.4510 H   0  0  0  0  0  0  0  0  0  0  0  0
   -5.5340   -0.7740    1.9570 H   0  0  0  0  0  0  0  0  0  0  0  0
   -7.7900   -4.3400   -0.4390 H   0  0  0  0  0  0  0  0  0  0  0  0
   -6.0720   -4.2920    0.0290 H   0  0  0  0  0  0  0  0  0  0  0  0
    5.6710   -3.7540   -1.9500 H   0  0  0  0  0  0  0  0  0  0  0  0
    7.3000   -3.0710   -2.1690 H   0  0  0  0  0  0  0  0  0  0  0  0
    6.9160   -4.0040   -0.7030 H   0  0  0  0  0  0  0  0  0  0  0  0
    5.1560    2.0360    1.6040 H   0  0  0  0  0  0  0  0  0  0  0  0
   -2.9540    3.4640    0.3870 H   0  0  0  0  0  0  0  0  0  0  0  0
 14 24  1  0  0  0  0
  4 14  1  0  0  0  0
  3 24  1  0  0  0  0
  4 19  1  0  0  0  0
  3 13  1  0  0  0  0
 13 19  1  0  0  0  0
 12 19  1  0  0  0  0
  2 12  1  0  0  0  0
  2 30  1  0  0  0  0
 26 30  2  0  0  0  0
  6 23  2  0  0  0  0
  1 27  2  0  0  0  0
 25 30  2  0  0  0  0
 18 30  1  0  0  0  0
  7 20  1  0  0  0  0
  9 20  2  0  0  0  0
  6  7  1  0  0  0  0
  6 22  1  0  0  0  0
 16 22  1  0  0  0  0
  1 18  1  0  0  0  0
  1 11  1  0  0  0  0
  7  8  2  0  0  0  0
  9 29  1  0  0  0  0
 10 29  1  0  0  0  0
 15 22  1  0  0  0  0
  9 17  1  0  0  0  0
 10 11  1  0  0  0  0
  8 17  1  0  0  0  0
  8 21  1  0  0  0  0
 15 21  1  0  0  0  0
 15 28  2  0  0  0  0
  5 21  1  0  0  0  0
  2 31  1  0  0  0  0
  2 32  1  0  0  0  0
  3 33  1  0  0  0  0
  3 34  1  0  0  0  0
  4 35  1  0  0  0  0
  4 36  1  0  0  0  0
  5 37  1  0  0  0  0
  5 38  1  0  0  0  0
  5 39  1  0  0  0  0
 10 40  1  0  0  0  0
 10 41  1  0  0  0  0
 11 42  1  0  0  0  0
 11 43  1  0  0  0  0
 12 44  1  0  0  0  0
 12 45  1  0  0  0  0
 13 46  1  0  0  0  0
 13 47  1  0  0  0  0
 14 48  1  0  0  0  0
 14 49  1  0  0  0  0
 16 50  1  0  0  0  0
 16 51  1  0  0  0  0
 16 52  1  0  0  0  0
 17 53  1  0  0  0  0
 18 54  1  0  0  0  0
M  END
> <OPENEYE_ISO_SMILES>
Cn1c2c(c(=O)n(c1=O)C)nc([nH]2)SCCC(=O)NS(=O)(=O)CCN3CCOCC3

> <OPENEYE_INCHI>
InChI=1S/C16H24N6O6S2/c1-20-13-12(14(24)21(2)16(20)25)17-15(18-13)29-9-3-11(23)19-30(26,27)10-6-22-4-7-28-8-5-22/h3-10H2,1-2H3,(H,17,18)(H,19,23)

> <OPENEYE_INCHIKEY>
JUFGUKJIZDHLKW-UHFFFAOYSA-N

> <FORMULA>
C16H24N6O6S2

$$$$
