@<TRIPOS>MOLECULE
/home/pku/3cl/gett_pdb/7LG0/7LG0_mol2/ligand/7LG0_P6G.pdb
 19 18 0 0 0
SMALL
GASTEIGER

@<TRIPOS>ATOM
      1  O1        27.8190    2.9240   12.2280 O.3   301  P6G301     -0.2176
      2  C2        28.2590    3.4030   10.9590 C.3   301  P6G301      0.2140
      3  C3        27.0950    3.6550   10.0090 C.3   301  P6G301      0.1777
      4  O4        27.6660    3.8350    8.7200 O.3   301  P6G301     -0.3483
      5  C5        27.4760    5.1210    8.1800 C.3   301  P6G301      0.1742
      6  C6        28.8340    5.7640    7.9940 C.3   301  P6G301      0.1742
      7  O7        29.4800    5.2570    6.8500 O.3   301  P6G301     -0.3484
      8  C8        30.8910    5.3590    6.9220 C.3   301  P6G301      0.1742
      9  C9        31.4880    4.9570    5.5840 C.3   301  P6G301      0.1742
     10  O10       30.9550    3.7170    5.1220 O.3   301  P6G301     -0.3484
     11  C11       31.3210    3.4340    3.7770 C.3   301  P6G301      0.1742
     12  C12       30.8440    2.0560    3.3510 C.3   301  P6G301      0.1742
     13  O13       29.4320    2.0540    3.1390 O.3   301  P6G301     -0.3484
     14  C14       28.8880    0.7580    2.9450 C.3   301  P6G301      0.1742
     15  C15       27.6280    0.6660    3.7730 C.3   301  P6G301      0.1742
     16  O16       26.6220    0.0200    3.0360 O.3   301  P6G301     -0.3483
     17  C17       25.4280    0.0060    3.7640 C.3   301  P6G301      0.1777
     18  C18       24.4090   -0.8490    3.0570 C.3   301  P6G301      0.2140
     19  O19       23.9900   -0.3030    1.8260 O.3   301  P6G301     -0.2176
@<TRIPOS>BOND
     1    19    18    1
     2    14    13    1
     3    14    15    1
     4    16    17    1
     5    16    15    1
     6    18    17    1
     7    13    12    1
     8    12    11    1
     9    11    10    1
    10    10     9    1
    11     9     8    1
    12     7     8    1
    13     7     6    1
    14     6     5    1
    15     5     4    1
    16     4     3    1
    17     3     2    1
    18     2     1    1
