B1A
  -OEChem-02242320013D

 31 32  0     0  0  0  0  0  0999 V2000
   -3.4510    0.5990    0.6890 N   0  0  0  0  0  0  0  0  0  0  0  0
   -1.9580   -1.1250   -0.1080 C   0  0  0  0  0  0  0  0  0  0  0  0
   -0.6800   -1.6170   -0.2780 C   0  0  0  0  0  0  0  0  0  0  0  0
    0.4110   -0.8910    0.1820 C   0  0  0  0  0  0  0  0  0  0  0  0
    0.2150    0.3320    0.8120 C   0  0  0  0  0  0  0  0  0  0  0  0
   -1.0630    0.8240    0.9820 C   0  0  0  0  0  0  0  0  0  0  0  0
    2.6170    0.7380   -0.6770 C   0  0  0  0  0  0  0  0  0  0  0  0
    5.1020   -0.0110    0.2900 C   0  0  0  0  0  0  0  0  0  0  0  0
   -5.8170    0.7960   -0.0040 C   0  0  0  0  0  0  0  0  0  0  0  0
   -4.3960    0.3540   -0.2400 C   0  0  0  0  0  0  0  0  0  0  0  0
   -4.1030   -0.2220   -1.2660 O   0  0  0  0  0  0  0  0  0  0  0  0
   -2.1530    0.1000    0.5170 C   0  0  0  0  0  0  0  0  0  0  0  0
    1.7070   -1.3900    0.0100 N   0  0  0  0  0  0  0  0  0  0  0  0
    2.7870   -0.5090   -0.0890 C   0  0  0  0  0  0  0  0  0  0  0  0
    3.6880    1.6030   -0.7780 C   0  0  0  0  0  0  0  0  0  0  0  0
    4.9290    1.2300   -0.2950 C   0  0  0  0  0  0  0  0  0  0  0  0
    4.0340   -0.8790    0.4000 C   0  0  0  0  0  0  0  0  0  0  0  0
   -3.6680    1.1250    1.4750 H   0  0  0  0  0  0  0  0  0  0  0  0
   -2.8060   -1.6900   -0.4650 H   0  0  0  0  0  0  0  0  0  0  0  0
   -0.5280   -2.5680   -0.7680 H   0  0  0  0  0  0  0  0  0  0  0  0
    1.0630    0.8950    1.1740 H   0  0  0  0  0  0  0  0  0  0  0  0
   -1.2150    1.7740    1.4730 H   0  0  0  0  0  0  0  0  0  0  0  0
    1.6490    1.0280   -1.0580 H   0  0  0  0  0  0  0  0  0  0  0  0
    6.0710   -0.2980    0.6700 H   0  0  0  0  0  0  0  0  0  0  0  0
   -5.8870    1.2930    0.9640 H   0  0  0  0  0  0  0  0  0  0  0  0
   -6.1180    1.4890   -0.7900 H   0  0  0  0  0  0  0  0  0  0  0  0
   -6.4750   -0.0730   -0.0150 H   0  0  0  0  0  0  0  0  0  0  0  0
    1.8550   -2.3470   -0.0400 H   0  0  0  0  0  0  0  0  0  0  0  0
    3.5570    2.5730   -1.2350 H   0  0  0  0  0  0  0  0  0  0  0  0
    5.7650    1.9090   -0.3760 H   0  0  0  0  0  0  0  0  0  0  0  0
    4.1690   -1.8480    0.8570 H   0  0  0  0  0  0  0  0  0  0  0  0
 15 16  2  0  0  0  0
  7 15  1  0  0  0  0
  8 16  1  0  0  0  0
  7 14  2  0  0  0  0
  8 17  2  0  0  0  0
 14 17  1  0  0  0  0
 13 14  1  0  0  0  0
  5  6  2  0  0  0  0
  4  5  1  0  0  0  0
  6 12  1  0  0  0  0
  4 13  1  0  0  0  0
  3  4  2  0  0  0  0
  1 12  1  0  0  0  0
  2 12  2  0  0  0  0
  9 10  1  0  0  0  0
  1 10  1  0  0  0  0
  2  3  1  0  0  0  0
 10 11  2  0  0  0  0
  1 18  1  0  0  0  0
  2 19  1  0  0  0  0
  3 20  1  0  0  0  0
  5 21  1  0  0  0  0
  6 22  1  0  0  0  0
  7 23  1  0  0  0  0
  8 24  1  0  0  0  0
  9 25  1  0  0  0  0
  9 26  1  0  0  0  0
  9 27  1  0  0  0  0
 13 28  1  0  0  0  0
 15 29  1  0  0  0  0
 16 30  1  0  0  0  0
 17 31  1  0  0  0  0
M  END
> <OPENEYE_ISO_SMILES>
CC(=O)Nc1ccc(cc1)Nc2ccccc2

> <OPENEYE_INCHI>
InChI=1S/C14H14N2O/c1-11(17)15-13-7-9-14(10-8-13)16-12-5-3-2-4-6-12/h2-10,16H,1H3,(H,15,17)

> <OPENEYE_INCHIKEY>
QAIADKFUCPEVKW-UHFFFAOYSA-N

> <FORMULA>
C14H14N2O

$$$$
