@<TRIPOS>MOLECULE
/home/pku/3cl/gett_pdb/7FRB/7FRB_mol2/ligand/7FRB_WXT.pdb
 47 49 0 0 0
SMALL
GASTEIGER

@<TRIPOS>ATOM
      1  C18      -55.0930  -27.9380    7.3040 C.3   201  WXT201     -0.0393
      2  C16      -53.2530  -29.1030    8.4590 C.2   201  WXT201      0.2190
      3  C17      -54.7400  -29.1240    8.1580 C.3   201  WXT201      0.0442
      4  C14      -50.9540  -29.9190    8.2240 C.3   201  WXT201      0.0302
      5  C12      -47.9730  -29.4770    3.5380 C.ar  201  WXT201      0.1205
      6  C10      -45.9740  -29.7200    4.7090 C.ar  201  WXT201      0.1627
      7  C20      -55.5420  -28.5450    9.2970 C.3   201  WXT201     -0.0393
      8  C19      -56.1360  -27.5590    8.3280 C.3   201  WXT201     -0.0512
      9  C01      -50.2750  -32.6020    5.8310 C.3   201  WXT201     -0.0609
     10  C02      -50.0450  -31.9820    7.2000 C.3   201  WXT201     -0.0268
     11  C03      -50.1430  -30.4560    7.0660 C.3   201  WXT201      0.0398
     12  C05      -48.0840  -29.7000    5.8290 C.ar  201  WXT201      0.1500
     13  C06      -46.6640  -29.7890    5.8800 C.ar  201  WXT201      0.1472
     14  C08      -44.5360  -29.9670    6.3260 C.ar  201  WXT201      0.0957
     15  C21      -55.3050  -30.3760    7.6400 C.3   201  WXT201     -0.0512
     16  C23      -51.0510  -32.6180    8.1700 C.3   201  WXT201     -0.0609
     17  N04      -48.8590  -29.7650    7.0540 N.pl3 201  WXT201     -0.3227
     18  N07      -45.7540  -29.9410    6.8740 N.ar  201  WXT201     -0.2308
     19  N09      -44.6560  -29.8320    5.0040 N.ar  201  WXT201     -0.3292
     20  N11      -46.6580  -29.5660    3.5460 N.ar  201  WXT201     -0.2162
     21  N13      -48.6820  -29.5450    4.6560 N.ar  201  WXT201     -0.2186
     22  N15      -52.3500  -30.0610    7.8710 N.am  201  WXT201     -0.3131
     23  O22      -52.8150  -28.2710    9.1840 O.2   201  WXT201     -0.2752
     24 H182      -55.4660  -28.1910    6.4500 H     201  WXT201      0.0275
     25 H181      -54.3670  -27.2930    7.2460 H     201  WXT201      0.0275
     26 H142      -50.7550  -28.9880    8.3050 H     201  WXT201      0.0480
     27 H141      -50.7280  -30.3520    9.0650 H     201  WXT201      0.0480
     28 H121      -48.4120  -29.3760    2.7250 H     201  WXT201      0.1048
     29 H202      -54.9850  -28.1230    9.9740 H     201  WXT201      0.0275
     30 H201      -56.1900  -29.1680    9.6510 H     201  WXT201      0.0275
     31 H192      -57.0430  -27.7770    8.0610 H     201  WXT201      0.0266
     32 H191      -56.0170  -26.6570    8.6260 H     201  WXT201      0.0266
     33 H012      -49.4700  -32.5170    5.3050 H     201  WXT201      0.0233
     34 H011      -51.0030  -32.1430    5.3870 H     201  WXT201      0.0233
     35 H013      -50.5070  -33.5340    5.9380 H     201  WXT201      0.0233
     36 H021      -49.1520  -32.2130    7.4980 H     201  WXT201      0.0314
     37 H031      -50.6100  -30.2370    6.2440 H     201  WXT201      0.0516
     38 H081      -43.7400  -30.0530    6.7900 H     201  WXT201      0.1027
     39 H212      -54.9960  -30.5190    6.7330 H     201  WXT201      0.0240
     40 H211      -56.2750  -30.3140    7.6440 H     201  WXT201      0.0240
     41 H213      -55.0270  -31.1170    8.1990 H     201  WXT201      0.0240
     42 H232      -51.9630  -32.3970    7.9140 H     201  WXT201      0.0233
     43 H233      -50.8840  -32.3400    9.0850 H     201  WXT201      0.0233
     44 H231      -50.9500  -33.5670    8.1230 H     201  WXT201      0.0233
     45 H041      -48.5690  -29.3640    7.7630 H     201  WXT201      0.1479
     46 H091      -44.0100  -29.8260    4.4360 H     201  WXT201      0.1682
     47 H151      -52.6180  -30.6860    7.3230 H     201  WXT201      0.1488
@<TRIPOS>BOND
     1    28     5    1
     2     5    20   ar
     3     5    21   ar
     4    20     6   ar
     5    46    19    1
     6    21    12   ar
     7     6    19   ar
     8     6    13   ar
     9    19    14   ar
    10    33     9    1
    11    34     9    1
    12    12    13   ar
    13    12    17    1
    14     9    35    1
    15     9    10    1
    16    13    18   ar
    17    37    11    1
    18    14    38    1
    19    14    18   ar
    20    24     1    1
    21    39    15    1
    22    17    11    1
    23    17    45    1
    24    11    10    1
    25    11     4    1
    26    10    36    1
    27    10    16    1
    28    25     1    1
    29     1     3    1
    30     1     8    1
    31    47    22    1
    32    15    40    1
    33    15     3    1
    34    15    41    1
    35    22     4    1
    36    22     2   am
    37    42    16    1
    38    31     8    1
    39    44    16    1
    40     3     2    1
    41     3     7    1
    42    16    43    1
    43     4    26    1
    44     4    27    1
    45     8    32    1
    46     8     7    1
    47     2    23    2
    48     7    30    1
    49     7    29    1
