@<TRIPOS>MOLECULE
/home/pku/3cl/gett_pdb/5SR4/5SR4_mol2/ligand/5SR4_QYO.pdb
 36 39 0 0 0
SMALL
GASTEIGER

@<TRIPOS>ATOM
      1  C17      -46.2980  -29.2350    6.3480 C.ar  201  QYO201      0.1442
      2  C14      -48.5880  -29.0600    3.5000 C.ar  201  QYO201     -0.0491
      3  C13      -49.9590  -28.9480    3.5360 C.ar  201  QYO201     -0.0257
      4  C12      -50.6460  -28.8950    4.7860 C.ar  201  QYO201      0.1254
      5  C11      -49.8820  -28.9520    5.9850 C.ar  201  QYO201     -0.0025
      6  C10      -48.5080  -29.0600    5.8860 C.ar  201  QYO201      0.0515
      7  C19      -44.0350  -29.4160    6.3140 C.ar  201  QYO201      0.1204
      8  C02      -44.4470  -32.4430    1.4610 C.3   201  QYO201      0.0570
      9  C03      -44.5180  -31.5780    0.1860 C.3   201  QYO201     -0.0251
     10  C04      -44.4320  -30.1060    0.6490 C.3   201  QYO201     -0.0321
     11  C05      -44.0000  -30.0600    2.1230 C.3   201  QYO201      0.0244
     12  C07      -45.1510  -29.3320    4.2630 C.ar  201  QYO201      0.1320
     13  C08      -46.4010  -29.2320    4.9390 C.ar  201  QYO201      0.0661
     14  C09      -47.8110  -29.1190    4.6430 C.ar  201  QYO201      0.0124
     15  C21      -43.8070  -31.5730    2.5100 C.3   201  QYO201     -0.0084
     16  F15      -51.9670  -28.7910    4.8070 F     201  QYO201     -0.2054
     17  N06      -45.0150  -29.3450    2.8850 N.pl3 201  QYO201     -0.3255
     18  N16      -47.5810  -29.1320    6.9400 N.ar  201  QYO201     -0.3389
     19  N18      -45.1470  -29.3280    7.0700 N.ar  201  QYO201     -0.2178
     20  N20      -43.9610  -29.4240    4.9630 N.ar  201  QYO201     -0.2202
     21  O01      -45.7520  -32.7810    1.8980 O.3   201  QYO201     -0.3917
     22 H141      -48.1360  -29.0980    2.5190 H     201  QYO201      0.0625
     23 H131      -50.6100  -28.9020    2.6750 H     201  QYO201      0.0646
     24 H111      -50.4990  -28.9010    6.8660 H     201  QYO201      0.0667
     25 H191      -43.0790  -29.4880    6.8480 H     201  QYO201      0.1048
     26 H021      -43.8560  -33.3900    1.2850 H     201  QYO201      0.0594
     27 H032      -45.4410  -31.7570   -0.3820 H     201  QYO201      0.0291
     28 H031      -43.6960  -31.8150   -0.4980 H     201  QYO201      0.0291
     29 H041      -45.3770  -29.5440    0.4490 H     201  QYO201      0.0284
     30 H042      -43.7260  -29.5200    0.0130 H     201  QYO201      0.0284
     31 H051      -43.0200  -29.5170    2.1990 H     201  QYO201      0.0499
     32 H211      -44.1530  -31.8280    3.5340 H     201  QYO201      0.0308
     33 H212      -42.7300  -31.8530    2.5230 H     201  QYO201      0.0308
     34 H061      -45.6860  -28.8090    2.3640 H     201  QYO201      0.1478
     35 H161      -47.7700  -29.1140    7.9170 H     201  QYO201      0.1673
     36 H011      -46.0260  -33.6030    1.4520 H     201  QYO201      0.2098
@<TRIPOS>BOND
     1    28     9    1
     2    27     9    1
     3    30    10    1
     4     9    10    1
     5     9     8    1
     6    29    10    1
     7    10    11    1
     8    26     8    1
     9    36    21    1
    10     8    21    1
    11     8    15    1
    12    11    31    1
    13    11    15    1
    14    11    17    1
    15    34    17    1
    16    15    33    1
    17    15    32    1
    18    22     2    1
    19    23     3    1
    20    17    12    1
    21     2     3   ar
    22     2    14   ar
    23     3     4   ar
    24    12    13   ar
    25    12    20   ar
    26    14    13   ar
    27    14     6   ar
    28     4    16    1
    29     4     5   ar
    30    13     1   ar
    31    20     7   ar
    32     6     5   ar
    33     6    18   ar
    34     5    24    1
    35     7    25    1
    36     7    19   ar
    37     1    18   ar
    38     1    19   ar
    39    18    35    1
