RQR
  -OEChem-02242320043D

 31 33  0     1  0  0  0  0  0999 V2000
    0.8850    0.0850    0.3250 N   0  0  0  0  0  0  0  0  0  0  0  0
   -5.4170   -0.2030   -0.1810 S   0  0  0  0  0  0  0  0  0  0  0  0
   -2.4530    2.4920   -0.1920 C   0  0  0  0  0  0  0  0  0  0  0  0
    5.3080    1.6040    0.3370 O   0  0  0  0  0  0  0  0  0  0  0  0
   -3.9170    0.7120   -0.1430 C   0  0  0  0  0  0  0  0  0  0  0  0
   -4.5730   -1.7240    0.0390 C   0  0  0  0  0  0  0  0  0  0  0  0
    6.5610    0.1230   -0.7220 O   0  0  0  0  0  0  0  0  0  0  0  0
   -3.2670   -1.5440    0.1320 C   0  0  0  0  0  0  0  0  0  0  0  0
   -2.8340   -0.1680    0.0350 C   0  0  0  0  0  0  0  0  0  0  0  0
   -1.5350    0.3980    0.0900 C   0  0  0  0  0  0  0  0  0  0  0  0
   -0.3450   -0.4650    0.2750 C   0  0  0  0  0  0  0  0  0  0  0  0
    3.8480   -1.1770   -0.9310 C   0  0  0  0  0  0  0  0  0  0  0  0
    2.5490   -1.2760   -0.8350 C   0  0  0  0  0  0  0  0  0  0  0  0
    2.0620   -0.7680    0.5020 C   0  0  1  0  0  0  0  0  0  0  0  0
    3.2440    0.0540    1.0650 C   0  0  0  0  0  0  0  0  0  0  0  0
    4.4420   -0.5880    0.3270 C   0  0  2  0  0  0  0  0  0  0  0  0
    5.4680    0.4600   -0.0190 C   0  0  0  0  0  0  0  0  0  0  0  0
   -0.4770   -1.6680    0.3800 O   0  0  0  0  0  0  0  0  0  0  0  0
   -3.6790    2.0190   -0.2500 N   0  0  0  0  0  0  0  0  0  0  0  0
   -1.4040    1.7130   -0.0270 N   0  0  0  0  0  0  0  0  0  0  0  0
    0.9900    1.0460    0.2410 H   0  0  0  0  0  0  0  0  0  0  0  0
   -2.3010    3.5580   -0.2830 H   0  0  0  0  0  0  0  0  0  0  0  0
   -5.0600   -2.6870    0.0920 H   0  0  0  0  0  0  0  0  0  0  0  0
    7.1910    0.8300   -0.9200 H   0  0  0  0  0  0  0  0  0  0  0  0
   -2.5760   -2.3630    0.2700 H   0  0  0  0  0  0  0  0  0  0  0  0
    4.4220   -1.4810   -1.7930 H   0  0  0  0  0  0  0  0  0  0  0  0
    1.9080   -1.6680   -1.6110 H   0  0  0  0  0  0  0  0  0  0  0  0
    1.8290   -1.6030    1.1630 H   0  0  0  0  0  0  0  0  0  0  0  0
    3.1450    1.1080    0.8070 H   0  0  0  0  0  0  0  0  0  0  0  0
    3.3330   -0.0770    2.1430 H   0  0  0  0  0  0  0  0  0  0  0  0
    4.8900   -1.3710    0.9390 H   0  0  0  0  0  0  0  0  0  0  0  0
 12 13  2  0  0  0  0
 12 16  1  0  0  0  0
 13 14  1  0  0  0  0
 15 16  1  0  0  0  0
 14 15  1  0  0  0  0
 16 17  1  0  0  0  0
  1 14  1  0  0  0  0
 11 18  2  0  0  0  0
  4 17  2  0  0  0  0
  7 17  1  0  0  0  0
  1 11  1  0  0  0  0
 10 11  1  0  0  0  0
  9 10  2  0  0  0  0
 10 20  1  0  0  0  0
  8  9  1  0  0  0  0
  6  8  2  0  0  0  0
  5  9  1  0  0  0  0
  3 20  2  0  0  0  0
  2  6  1  0  0  0  0
  3 19  1  0  0  0  0
  5 19  2  0  0  0  0
  2  5  1  0  0  0  0
  1 21  1  0  0  0  0
  3 22  1  0  0  0  0
  6 23  1  0  0  0  0
  7 24  1  0  0  0  0
  8 25  1  0  0  0  0
 12 26  1  0  0  0  0
 13 27  1  0  0  0  0
 14 28  1  0  0  0  0
 15 29  1  0  0  0  0
 15 30  1  0  0  0  0
 16 31  1  0  0  0  0
M  END
> <OPENEYE_ISO_SMILES>
c1csc2c1c(ncn2)C(=O)N[C@@H]3C[C@@H](C=C3)C(=O)O

> <OPENEYE_INCHI>
InChI=1S/C13H11N3O3S/c17-11(16-8-2-1-7(5-8)13(18)19)10-9-3-4-20-12(9)15-6-14-10/h1-4,6-8H,5H2,(H,16,17)(H,18,19)/t7-,8+/m1/s1

> <OPENEYE_INCHIKEY>
QXCOOMUNLBGYCR-SFYZADRCSA-N

> <FORMULA>
C13H11N3O3S

$$$$
