WXS
  -OEChem-02242320043D

 26 28  0     0  0  0  0  0  0999 V2000
   -1.5750    0.2000    0.1300 C   0  0  0  0  0  0  0  0  0  0  0  0
    3.0190    1.6580   -1.9050 C   0  0  0  0  0  0  0  0  0  0  0  0
    3.3470    0.6970   -0.7910 C   0  0  0  0  0  0  0  0  0  0  0  0
    4.4310   -0.6970    0.4910 C   0  0  0  0  0  0  0  0  0  0  0  0
    2.5240    0.3130    0.1710 C   0  0  0  0  0  0  0  0  0  0  0  0
    1.0950    0.7610    0.3420 C   0  0  0  0  0  0  0  0  0  0  0  0
   -2.8010    2.0240    0.8370 C   0  0  0  0  0  0  0  0  0  0  0  0
   -3.9870    0.1840    0.1320 C   0  0  0  0  0  0  0  0  0  0  0  0
   -4.3870   -1.8390   -0.6470 C   0  0  0  0  0  0  0  0  0  0  0  0
   -2.7770   -0.4820   -0.1280 C   0  0  0  0  0  0  0  0  0  0  0  0
   -1.6400    1.4390    0.6080 N   0  0  0  0  0  0  0  0  0  0  0  0
   -3.9510    1.4240    0.6100 N   0  0  0  0  0  0  0  0  0  0  0  0
   -4.9840   -0.6960   -0.2040 N   0  0  0  0  0  0  0  0  0  0  0  0
   -3.0920   -1.7110   -0.6010 N   0  0  0  0  0  0  0  0  0  0  0  0
    4.5360    0.0730   -0.6050 O   0  0  0  0  0  0  0  0  0  0  0  0
    5.3060   -1.3980    0.9590 O   0  0  0  0  0  0  0  0  0  0  0  0
    3.1880   -0.5520    0.9760 O   0  0  0  0  0  0  0  0  0  0  0  0
   -0.0190   -0.5730   -0.1650 S   0  0  0  0  0  0  0  0  0  0  0  0
    3.2550    2.6740   -1.5900 H   0  0  0  0  0  0  0  0  0  0  0  0
    3.6060    1.4050   -2.7880 H   0  0  0  0  0  0  0  0  0  0  0  0
    1.9570    1.5890   -2.1430 H   0  0  0  0  0  0  0  0  0  0  0  0
    0.9140    1.0070    1.3880 H   0  0  0  0  0  0  0  0  0  0  0  0
    0.9130    1.6400   -0.2750 H   0  0  0  0  0  0  0  0  0  0  0  0
   -2.8080    3.0310    1.2260 H   0  0  0  0  0  0  0  0  0  0  0  0
   -4.9110   -2.7210   -0.9840 H   0  0  0  0  0  0  0  0  0  0  0  0
   -5.9380   -0.5350   -0.1390 H   0  0  0  0  0  0  0  0  0  0  0  0
  2  3  1  0  0  0  0
  3 15  1  0  0  0  0
  4 15  1  0  0  0  0
  3  5  2  0  0  0  0
  4 16  2  0  0  0  0
  4 17  1  0  0  0  0
  5  6  1  0  0  0  0
  5 17  1  0  0  0  0
  6 18  1  0  0  0  0
  1 18  1  0  0  0  0
 10 14  1  0  0  0  0
  9 14  2  0  0  0  0
  1 10  2  0  0  0  0
  1 11  1  0  0  0  0
  8 10  1  0  0  0  0
  9 13  1  0  0  0  0
  7 11  2  0  0  0  0
  8 13  1  0  0  0  0
  8 12  2  0  0  0  0
  7 12  1  0  0  0  0
  2 19  1  0  0  0  0
  2 20  1  0  0  0  0
  2 21  1  0  0  0  0
  6 22  1  0  0  0  0
  6 23  1  0  0  0  0
  7 24  1  0  0  0  0
  9 25  1  0  0  0  0
 13 26  1  0  0  0  0
M  END
> <OPENEYE_ISO_SMILES>
Cc1c(oc(=O)o1)CSc2c3c([nH]cn3)ncn2

> <OPENEYE_INCHI>
InChI=1S/C10H8N4O3S/c1-5-6(17-10(15)16-5)2-18-9-7-8(12-3-11-7)13-4-14-9/h3-4H,2H2,1H3,(H,11,12,13,14)

> <OPENEYE_INCHIKEY>
IKONPSAKEQUJQO-UHFFFAOYSA-N

> <FORMULA>
C10H8N4O3S

$$$$
