T6V
  -OEChem-02242320043D

 30 31  0     1  0  0  0  0  0999 V2000
   -1.8570    2.0500   -1.1570 C   0  0  0  0  0  0  0  0  0  0  0  0
    1.6980   -1.6440   -0.1230 C   0  0  0  0  0  0  0  0  0  0  0  0
   -1.2100   -2.2400   -0.1990 C   0  0  0  0  0  0  0  0  0  0  0  0
   -0.5550   -3.5760    0.0390 C   0  0  0  0  0  0  0  0  0  0  0  0
   -1.2910    0.1130    0.1390 C   0  0  0  0  0  0  0  0  0  0  0  0
   -2.0200    0.6180    1.2070 C   0  0  0  0  0  0  0  0  0  0  0  0
   -2.6720    1.8290    1.0860 C   0  0  0  0  0  0  0  0  0  0  0  0
   -2.5870    2.5470   -0.0930 C   0  0  0  0  0  0  0  0  0  0  0  0
   -1.2110    0.8340   -1.0450 C   0  0  0  0  0  0  0  0  0  0  0  0
    0.6950   -1.1740    0.8830 C   0  0  1  0  0  0  0  0  0  0  0  0
    2.4780   -0.7720   -0.6980 C   0  0  0  0  0  0  0  0  0  0  0  0
    1.0870    0.2350    1.3960 C   0  0  0  0  0  0  0  0  0  0  0  0
   -0.6290   -1.1140    0.2590 N   0  0  0  0  0  0  0  0  0  0  0  0
   -2.2600   -2.1790   -0.8030 O   0  0  0  0  0  0  0  0  0  0  0  0
    1.2430    1.4420   -1.0290 O   0  0  0  0  0  0  0  0  0  0  0  0
    3.2980    1.4020    0.3680 O   0  0  0  0  0  0  0  0  0  0  0  0
    2.0650    0.8290   -0.0450 S   0  0  0  0  0  0  0  0  0  0  0  0
   -1.7960    2.6100   -2.0780 H   0  0  0  0  0  0  0  0  0  0  0  0
    1.7770   -2.6930   -0.3660 H   0  0  0  0  0  0  0  0  0  0  0  0
    0.3370   -3.4400    0.6510 H   0  0  0  0  0  0  0  0  0  0  0  0
   -1.2520   -4.2360    0.5550 H   0  0  0  0  0  0  0  0  0  0  0  0
   -0.2750   -4.0190   -0.9160 H   0  0  0  0  0  0  0  0  0  0  0  0
   -2.0840    0.0600    2.1300 H   0  0  0  0  0  0  0  0  0  0  0  0
   -3.2400    2.2220    1.9160 H   0  0  0  0  0  0  0  0  0  0  0  0
   -3.0910    3.4980   -0.1830 H   0  0  0  0  0  0  0  0  0  0  0  0
   -0.6450    0.4440   -1.8780 H   0  0  0  0  0  0  0  0  0  0  0  0
    0.6690   -1.8700    1.7210 H   0  0  0  0  0  0  0  0  0  0  0  0
    3.2370   -0.9850   -1.4360 H   0  0  0  0  0  0  0  0  0  0  0  0
    0.2070    0.8570    1.5580 H   0  0  0  0  0  0  0  0  0  0  0  0
    1.6970    0.1730    2.2970 H   0  0  0  0  0  0  0  0  0  0  0  0
  3 14  2  0  0  0  0
  3  4  1  0  0  0  0
  3 13  1  0  0  0  0
  5  6  2  0  0  0  0
  6  7  1  0  0  0  0
  7  8  2  0  0  0  0
  1  8  1  0  0  0  0
  1  9  2  0  0  0  0
  5 13  1  0  0  0  0
 10 13  1  0  0  0  0
  2 10  1  0  0  0  0
  2 11  2  0  0  0  0
 11 17  1  0  0  0  0
 15 17  2  0  0  0  0
 16 17  2  0  0  0  0
 12 17  1  0  0  0  0
  5  9  1  0  0  0  0
 10 12  1  0  0  0  0
  1 18  1  0  0  0  0
  2 19  1  0  0  0  0
  4 20  1  0  0  0  0
  4 21  1  0  0  0  0
  4 22  1  0  0  0  0
  6 23  1  0  0  0  0
  7 24  1  0  0  0  0
  8 25  1  0  0  0  0
  9 26  1  0  0  0  0
 10 27  1  0  0  0  0
 11 28  1  0  0  0  0
 12 29  1  0  0  0  0
 12 30  1  0  0  0  0
M  END
> <OPENEYE_ISO_SMILES>
CC(=O)N(c1ccccc1)[C@@H]2CS(=O)(=O)C=C2

> <OPENEYE_INCHI>
InChI=1S/C12H13NO3S/c1-10(14)13(11-5-3-2-4-6-11)12-7-8-17(15,16)9-12/h2-8,12H,9H2,1H3/t12-/m0/s1

> <OPENEYE_INCHIKEY>
KBIYZUQDVPCCPL-LBPRGKRZSA-N

> <FORMULA>
C12H13NO3S

$$$$
