W6D
  -OEChem-02242320043D

 20 21  0     0  0  0  0  0  0999 V2000
    2.2220    1.7340    0.0000 C   0  0  0  0  0  0  0  0  0  0  0  0
   -2.0490    0.4950   -0.0000 C   0  0  0  0  0  0  0  0  0  0  0  0
   -0.8080   -0.3000    0.0000 C   0  0  0  0  0  0  0  0  0  0  0  0
   -0.8640   -1.6920    0.0000 C   0  0  0  0  0  0  0  0  0  0  0  0
    0.3020   -2.4360    0.0000 C   0  0  0  0  0  0  0  0  0  0  0  0
    1.5360   -1.8170    0.0000 C   0  0  0  0  0  0  0  0  0  0  0  0
    1.6250   -0.4310   -0.0000 C   0  0  0  0  0  0  0  0  0  0  0  0
    0.8760    1.7350    0.0010 C   0  0  0  0  0  0  0  0  0  0  0  0
    0.4480    0.3400   -0.0000 C   0  0  0  0  0  0  0  0  0  0  0  0
   -3.2460   -0.1240   -0.0000 N   0  0  0  0  0  0  0  0  0  0  0  0
    2.6850    0.4500   -0.0000 N   0  0  0  0  0  0  0  0  0  0  0  0
   -1.9920    1.7100    0.0000 O   0  0  0  0  0  0  0  0  0  0  0  0
    2.8430    2.6180   -0.0030 H   0  0  0  0  0  0  0  0  0  0  0  0
   -1.8210   -2.1930    0.0000 H   0  0  0  0  0  0  0  0  0  0  0  0
    0.2460   -3.5140    0.0010 H   0  0  0  0  0  0  0  0  0  0  0  0
    2.4370   -2.4140    0.0010 H   0  0  0  0  0  0  0  0  0  0  0  0
    0.2350    2.6040    0.0010 H   0  0  0  0  0  0  0  0  0  0  0  0
   -3.2910   -1.0930   -0.0000 H   0  0  0  0  0  0  0  0  0  0  0  0
   -4.0620    0.3990   -0.0000 H   0  0  0  0  0  0  0  0  0  0  0  0
    3.6220    0.1950   -0.0040 H   0  0  0  0  0  0  0  0  0  0  0  0
  2 12  2  0  0  0  0
  1  8  2  0  0  0  0
  8  9  1  0  0  0  0
  1 11  1  0  0  0  0
  2  3  1  0  0  0  0
  2 10  1  0  0  0  0
  3  9  2  0  0  0  0
  7  9  1  0  0  0  0
  7 11  1  0  0  0  0
  3  4  1  0  0  0  0
  6  7  2  0  0  0  0
  4  5  2  0  0  0  0
  5  6  1  0  0  0  0
  1 13  1  0  0  0  0
  4 14  1  0  0  0  0
  5 15  1  0  0  0  0
  6 16  1  0  0  0  0
  8 17  1  0  0  0  0
 10 18  1  0  0  0  0
 10 19  1  0  0  0  0
 11 20  1  0  0  0  0
M  END
> <OPENEYE_ISO_SMILES>
c1cc(c2cc[nH]c2c1)C(=O)N

> <OPENEYE_INCHI>
InChI=1S/C9H8N2O/c10-9(12)7-2-1-3-8-6(7)4-5-11-8/h1-5,11H,(H2,10,12)

> <OPENEYE_INCHIKEY>
ACRGIRLCXXEJCS-UHFFFAOYSA-N

> <FORMULA>
C9H8N2O

$$$$
