ROO
  -OEChem-02242320043D

 38 41  0     0  0  0  0  0  0999 V2000
   -2.7590    0.9530   -0.0290 C   0  0  0  0  0  0  0  0  0  0  0  0
   -2.3100    3.3020   -0.1990 C   0  0  0  0  0  0  0  0  0  0  0  0
   -1.8520    2.0030   -0.1500 C   0  0  0  0  0  0  0  0  0  0  0  0
   -3.6690    3.5660   -0.1260 C   0  0  0  0  0  0  0  0  0  0  0  0
   -4.5770    2.5370    0.0020 C   0  0  0  0  0  0  0  0  0  0  0  0
   -4.1350    1.2200    0.0510 C   0  0  0  0  0  0  0  0  0  0  0  0
   -3.9160   -1.0320    0.1660 C   0  0  0  0  0  0  0  0  0  0  0  0
    2.9160   -0.6500    0.7990 C   0  0  0  0  0  0  0  0  0  0  0  0
   -2.6180   -0.5090    0.0510 C   0  0  0  0  0  0  0  0  0  0  0  0
    4.8460    0.4150   -2.2150 C   0  0  0  0  0  0  0  0  0  0  0  0
    3.9110   -0.1110   -1.1570 C   0  0  0  0  0  0  0  0  0  0  0  0
    2.1780   -1.1080   -0.2230 C   0  0  0  0  0  0  0  0  0  0  0  0
    0.8840   -1.8690   -0.0940 C   0  0  0  0  0  0  0  0  0  0  0  0
   -1.5340   -1.3960    0.0340 C   0  0  0  0  0  0  0  0  0  0  0  0
   -3.0160   -3.1510    0.2360 C   0  0  0  0  0  0  0  0  0  0  0  0
    4.0750    0.0210    0.1920 C   0  0  0  0  0  0  0  0  0  0  0  0
    5.1810    0.6960    0.8920 C   0  0  0  0  0  0  0  0  0  0  0  0
   -0.2380   -0.9260   -0.0780 N   0  0  0  0  0  0  0  0  0  0  0  0
   -1.7800   -2.7000    0.1280 N   0  0  0  0  0  0  0  0  0  0  0  0
   -4.0620   -2.3540    0.2550 N   0  0  0  0  0  0  0  0  0  0  0  0
   -4.8060    0.0140    0.1710 N   0  0  0  0  0  0  0  0  0  0  0  0
    2.7750   -0.7800   -1.3790 O   0  0  0  0  0  0  0  0  0  0  0  0
    5.1980    0.7410    2.2390 O   0  0  0  0  0  0  0  0  0  0  0  0
    6.0780    1.2120    0.2550 O   0  0  0  0  0  0  0  0  0  0  0  0
   -1.6080    4.1170   -0.2930 H   0  0  0  0  0  0  0  0  0  0  0  0
   -0.7930    1.8000   -0.2060 H   0  0  0  0  0  0  0  0  0  0  0  0
   -4.0190    4.5880   -0.1640 H   0  0  0  0  0  0  0  0  0  0  0  0
   -5.6340    2.7540    0.0580 H   0  0  0  0  0  0  0  0  0  0  0  0
    2.7010   -0.7500    1.8530 H   0  0  0  0  0  0  0  0  0  0  0  0
    5.5950   -0.3420   -2.4470 H   0  0  0  0  0  0  0  0  0  0  0  0
    4.2790    0.6530   -3.1150 H   0  0  0  0  0  0  0  0  0  0  0  0
    5.3400    1.3150   -1.8480 H   0  0  0  0  0  0  0  0  0  0  0  0
    0.7760   -2.5480   -0.9390 H   0  0  0  0  0  0  0  0  0  0  0  0
    0.8900   -2.4410    0.8340 H   0  0  0  0  0  0  0  0  0  0  0  0
   -3.1740   -4.2170    0.3100 H   0  0  0  0  0  0  0  0  0  0  0  0
   -0.0710    0.0270   -0.1460 H   0  0  0  0  0  0  0  0  0  0  0  0
   -5.7680   -0.0790    0.2430 H   0  0  0  0  0  0  0  0  0  0  0  0
    5.9440    1.1950    2.6530 H   0  0  0  0  0  0  0  0  0  0  0  0
  2  4  2  0  0  0  0
  4  5  1  0  0  0  0
  2  3  1  0  0  0  0
  5  6  2  0  0  0  0
  1  3  2  0  0  0  0
  1  6  1  0  0  0  0
  6 21  1  0  0  0  0
  1  9  1  0  0  0  0
  7 21  1  0  0  0  0
  7  9  2  0  0  0  0
  9 14  1  0  0  0  0
  7 20  1  0  0  0  0
 14 18  1  0  0  0  0
 14 19  2  0  0  0  0
 13 18  1  0  0  0  0
 15 20  2  0  0  0  0
 15 19  1  0  0  0  0
 12 13  1  0  0  0  0
 12 22  1  0  0  0  0
  8 12  2  0  0  0  0
 11 22  1  0  0  0  0
  8 16  1  0  0  0  0
 10 11  1  0  0  0  0
 11 16  2  0  0  0  0
 16 17  1  0  0  0  0
 17 24  2  0  0  0  0
 17 23  1  0  0  0  0
  2 25  1  0  0  0  0
  3 26  1  0  0  0  0
  4 27  1  0  0  0  0
  5 28  1  0  0  0  0
  8 29  1  0  0  0  0
 10 30  1  0  0  0  0
 10 31  1  0  0  0  0
 10 32  1  0  0  0  0
 13 33  1  0  0  0  0
 13 34  1  0  0  0  0
 15 35  1  0  0  0  0
 18 36  1  0  0  0  0
 21 37  1  0  0  0  0
 23 38  1  0  0  0  0
M  END
> <OPENEYE_ISO_SMILES>
Cc1c(cc(o1)CNc2c3c4ccccc4[nH]c3ncn2)C(=O)O

> <OPENEYE_INCHI>
InChI=1S/C17H14N4O3/c1-9-12(17(22)23)6-10(24-9)7-18-15-14-11-4-2-3-5-13(11)21-16(14)20-8-19-15/h2-6,8H,7H2,1H3,(H,22,23)(H2,18,19,20,21)

> <OPENEYE_INCHIKEY>
XCWBRJUZKURZCA-UHFFFAOYSA-N

> <FORMULA>
C17H14N4O3

$$$$
