NYV
  -OEChem-02242320033D

 23 23  0     0  0  0  0  0  0999 V2000
   -1.6910    0.0490    0.0010 N   0  0  0  0  0  0  0  0  0  0  0  0
    2.9760   -1.0180    0.7380 N   0  0  0  0  0  0  0  0  0  0  0  0
   -1.3680   -1.2620    0.0070 C   0  0  0  0  0  0  0  0  0  0  0  0
    0.4800   -0.1480   -0.0270 C   0  0  0  0  0  0  0  0  0  0  0  0
   -0.5190    0.7550   -0.0210 C   0  0  0  0  0  0  0  0  0  0  0  0
   -3.8030    0.1310   -1.2290 C   0  0  0  0  0  0  0  0  0  0  0  0
   -3.0440    0.6110    0.0100 C   0  0  0  0  0  0  0  0  0  0  0  0
   -3.7800    0.1490    1.2690 C   0  0  0  0  0  0  0  0  0  0  0  0
   -0.0680   -1.3720   -0.0100 N   0  0  0  0  0  0  0  0  0  0  0  0
    2.3820    1.3770    0.7450 O   0  0  0  0  0  0  0  0  0  0  0  0
    2.6100    0.1360   -1.4130 O   0  0  0  0  0  0  0  0  0  0  0  0
    2.2040    0.2150   -0.0530 S   0  0  0  0  0  0  0  0  0  0  0  0
    2.4640   -1.7540    1.1070 H   0  0  0  0  0  0  0  0  0  0  0  0
    3.9420   -1.0040    0.8320 H   0  0  0  0  0  0  0  0  0  0  0  0
   -2.0690   -2.0830    0.0230 H   0  0  0  0  0  0  0  0  0  0  0  0
   -0.4150    1.8300   -0.0310 H   0  0  0  0  0  0  0  0  0  0  0  0
   -3.2790    0.4600   -2.1260 H   0  0  0  0  0  0  0  0  0  0  0  0
   -3.8620   -0.9570   -1.2210 H   0  0  0  0  0  0  0  0  0  0  0  0
   -4.8100    0.5490   -1.2230 H   0  0  0  0  0  0  0  0  0  0  0  0
   -2.9860    1.6990    0.0010 H   0  0  0  0  0  0  0  0  0  0  0  0
   -3.8380   -0.9390    1.2780 H   0  0  0  0  0  0  0  0  0  0  0  0
   -3.2390    0.4910    2.1520 H   0  0  0  0  0  0  0  0  0  0  0  0
   -4.7870    0.5670    1.2760 H   0  0  0  0  0  0  0  0  0  0  0  0
  7  8  1  0  0  0  0
  6  7  1  0  0  0  0
  1  7  1  0  0  0  0
  1  5  1  0  0  0  0
  4  5  2  0  0  0  0
  1  3  1  0  0  0  0
 11 12  2  0  0  0  0
  4 12  1  0  0  0  0
  4  9  1  0  0  0  0
  3  9  2  0  0  0  0
  2 12  1  0  0  0  0
 10 12  2  0  0  0  0
  2 13  1  0  0  0  0
  2 14  1  0  0  0  0
  3 15  1  0  0  0  0
  5 16  1  0  0  0  0
  6 17  1  0  0  0  0
  6 18  1  0  0  0  0
  6 19  1  0  0  0  0
  7 20  1  0  0  0  0
  8 21  1  0  0  0  0
  8 22  1  0  0  0  0
  8 23  1  0  0  0  0
M  END
> <OPENEYE_ISO_SMILES>
CC(C)n1cc(nc1)S(=O)(=O)N

> <OPENEYE_INCHI>
InChI=1S/C6H11N3O2S/c1-5(2)9-3-6(8-4-9)12(7,10)11/h3-5H,1-2H3,(H2,7,10,11)

> <OPENEYE_INCHIKEY>
DEJLCHRMKBBNPV-UHFFFAOYSA-N

> <FORMULA>
C6H11N3O2S

$$$$
