@<TRIPOS>MOLECULE
/home/pku/3cl/gett_pdb/7M8N/7M8N_mol2/ligand/7M8N_YSP.pdb
 58 62 0 0 0
SMALL
GASTEIGER

@<TRIPOS>ATOM
      1  C7       -21.2630   -4.3850  -25.8870 C.ar  401  YSP401      0.0212
      2  C6       -18.3940   -5.8450  -26.0670 C.ar  401  YSP401     -0.0348
      3  C1       -20.4870   -4.1550  -28.1920 C.ar  401  YSP401      0.2635
      4  C2       -18.8560   -4.6260  -26.4420 C.ar  401  YSP401      0.0675
      5  C4       -16.2670   -4.8320  -25.7160 C.ar  401  YSP401      0.0277
      6  C5       -17.0910   -5.9540  -25.7040 C.ar  401  YSP401     -0.0416
      7  C10      -23.5560   -3.5440  -23.8880 C.ar  401  YSP401      0.2617
      8  C11      -24.8670   -4.8400  -25.5900 C.ar  401  YSP401      0.0193
      9  C16      -21.6840   -4.4810  -31.1960 C.ar  401  YSP401     -0.0120
     10  C17      -21.9650   -4.1780  -32.4460 C.ar  401  YSP401      0.1230
     11  C21      -19.1000   -3.9540  -35.3600 C.3   401  YSP401     -0.0393
     12  C22      -19.1160   -6.0510  -36.9640 C.ar  401  YSP401     -0.0585
     13  C23      -19.3810   -7.3210  -37.1790 C.ar  401  YSP401     -0.0615
     14  C20      -19.4030   -5.4330  -35.6010 C.ar  401  YSP401     -0.0441
     15  C24      -19.9740   -8.1760  -36.0700 C.ar  401  YSP401     -0.0614
     16  C25      -20.2240   -7.6410  -34.8810 C.ar  401  YSP401     -0.0551
     17  C26      -22.8010   -2.9570  -32.7820 C.ar  401  YSP401     -0.0016
     18  C27      -23.2360   -2.1990  -31.7980 C.ar  401  YSP401      0.0450
     19  C28      -22.9110   -2.5390  -30.3510 C.ar  401  YSP401     -0.0353
     20  C12      -25.8300   -4.3390  -23.3200 C.ar  401  YSP401      0.3267
     21  C13      -22.9050   -3.8760  -27.6820 C.ar  401  YSP401     -0.0395
     22  C14      -21.8750   -3.8950  -28.6200 C.ar  401  YSP401      0.0477
     23  C15      -22.1940   -3.6010  -30.0740 C.ar  401  YSP401     -0.0078
     24  C18      -20.2210   -5.5510  -33.2820 C.3   401  YSP401      0.1149
     25  C19      -19.9080   -6.1770  -34.6350 C.ar  401  YSP401     -0.0075
     26  C3       -18.0330   -3.5170  -26.4510 C.ar  401  YSP401      0.0514
     27  C8       -22.6020   -4.1240  -26.3010 C.ar  401  YSP401      0.0060
     28  C9       -23.7030   -4.1520  -25.2620 C.ar  401  YSP401      0.0640
     29  N1       -20.2170   -4.4020  -26.8480 N.ar  401  YSP401     -0.2816
     30  N2       -16.7500   -3.6260  -26.0790 N.ar  401  YSP401     -0.2612
     31  N3       -24.6260   -3.6420  -22.9540 N.ar  401  YSP401     -0.2746
     32  N4       -25.9640   -4.9460  -24.6360 N.ar  401  YSP401     -0.3137
     33  O1       -19.4340   -4.1850  -29.1070 O.2   401  YSP401     -0.2667
     34  O2       -22.3910   -2.8800  -23.5380 O.2   401  YSP401     -0.2671
     35  O3       -26.8830   -4.4510  -22.4220 O.2   401  YSP401     -0.2467
     36  O4       -21.4910   -4.9740  -33.4800 O.3   401  YSP401     -0.4873
     37 CL1       -24.2330   -0.7730  -32.1400 Cl    401  YSP401     -0.0834
     38  H5       -21.0750   -4.5430  -24.9900 H     401  YSP401      0.0820
     39  H4       -18.9540   -6.5870  -26.0590 H     401  YSP401      0.0639
     40  H2       -15.3740   -4.9150  -25.4710 H     401  YSP401      0.0829
     41  H3       -16.7480   -6.7790  -25.4470 H     401  YSP401      0.0633
     42  H7       -24.9460   -5.2360  -26.4270 H     401  YSP401      0.0816
     43  H10      -21.1730   -5.2340  -31.0030 H     401  YSP401      0.0660
     44  H13      -18.8180   -3.5420  -36.1920 H     401  YSP401      0.0278
     45  H14      -18.3920   -3.8720  -34.7030 H     401  YSP401      0.0278
     46  H15      -19.8980   -3.5090  -35.0330 H     401  YSP401      0.0278
     47  H16      -18.7540   -5.5290  -37.6440 H     401  YSP401      0.0620
     48  H17      -19.2060   -7.6970  -38.0110 H     401  YSP401      0.0618
     49  H18      -20.1610   -9.0740  -36.2250 H     401  YSP401      0.0618
     50  H19      -20.5900   -8.1600  -34.2020 H     401  YSP401      0.0621
     51  H20      -23.0030   -2.7490  -33.6650 H     401  YSP401      0.0669
     52  H21      -23.2210   -1.9940  -29.6640 H     401  YSP401      0.0638
     53  H9       -23.7790   -3.7050  -27.9480 H     401  YSP401      0.0632
     54  H11      -19.5650   -4.8760  -33.0510 H     401  YSP401      0.0748
     55  H12      -20.2510   -6.2260  -32.5850 H     401  YSP401      0.0748
     56  H1       -18.3710   -2.6920  -26.7150 H     401  YSP401      0.0851
     57  H6       -24.5530   -3.2850  -22.1750 H     401  YSP401      0.1734
     58  H8       -26.6840   -5.3640  -24.8490 H     401  YSP401      0.1698
@<TRIPOS>BOND
     1    48    13    1
     2    47    12    1
     3    13    12   ar
     4    13    15   ar
     5    12    14   ar
     6    49    15    1
     7    44    11    1
     8    15    16   ar
     9    14    11    1
    10    14    25   ar
    11    11    46    1
    12    11    45    1
    13    16    25   ar
    14    16    50    1
    15    25    24    1
    16    51    17    1
    17    36    24    1
    18    36    10    1
    19    24    54    1
    20    24    55    1
    21    17    10   ar
    22    17    18   ar
    23    10     9   ar
    24    37    18    1
    25    18    19   ar
    26     9    43    1
    27     9    23   ar
    28    19    23   ar
    29    19    52    1
    30    23    22    1
    31    33     3    2
    32    22     3   ar
    33    22    21   ar
    34     3    29   ar
    35    53    21    1
    36    21    27   ar
    37    29     4    1
    38    29     1   ar
    39    56    26    1
    40    26     4   ar
    41    26    30   ar
    42     4     2   ar
    43    42     8    1
    44    27     1   ar
    45    27    28    1
    46    30     5   ar
    47     2    39    1
    48     2     6   ar
    49     1    38    1
    50     5     6   ar
    51     5    40    1
    52     6    41    1
    53     8    28   ar
    54     8    32   ar
    55    28     7   ar
    56    58    32    1
    57    32    20   ar
    58     7    34    2
    59     7    31   ar
    60    20    31   ar
    61    20    35    2
    62    31    57    1
