@<TRIPOS>MOLECULE
/home/pku/3cl/gett_pdb/8DZ2/8DZ2_mol2/ligand/8DZ2_4WI.pdb
 68 70 0 0 0
SMALL
GASTEIGER

@<TRIPOS>ATOM
      1  C8       -16.8380    5.4350   25.4510 C.2   401  4WI401      0.2162
      2  C3       -21.0360    2.9880   24.2050 C.2   401  4WI401      0.0750
      3  C1       -21.5300    4.5600   27.2800 C.2   401  4WI401      0.2344
      4  C13      -20.3090    5.8600   29.7520 C.2   401  4WI401      0.2371
      5  C21      -19.7410    6.5620   32.9490 C.2   401  4WI401      0.3179
      6  C6       -18.8540    6.6690   25.0320 C.3   401  4WI401     -0.0262
      7  C7       -17.6560    7.6040   25.1040 C.3   401  4WI401      0.0123
      8  C10      -22.8000    5.8090   30.1820 C.3   401  4WI401      0.0192
      9  C5       -18.3430    5.3630   25.6390 C.3   401  4WI401      0.0390
     10  C9       -21.6850    4.1540   28.7350 C.3   401  4WI401      0.1058
     11  C11      -23.7880    4.7050   29.8480 C.3   401  4WI401     -0.0142
     12  C12      -23.0890    3.6470   29.0190 C.3   401  4WI401     -0.0037
     13  C18      -23.5670    3.3230   30.4130 C.3   401  4WI401     -0.0250
     14  C19      -22.5490    3.1710   31.5250 C.3   401  4WI401     -0.0592
     15  C20      -24.8350    2.5250   30.6510 C.3   401  4WI401     -0.0592
     16  C16      -19.8010    9.5690   30.8510 C.3   401  4WI401     -0.0579
     17  C17      -20.8410    8.6730   28.7600 C.3   401  4WI401     -0.0579
     18  C23      -18.4050    8.2800   29.2180 C.3   401  4WI401     -0.0579
     19  C4       -18.9330    4.0970   25.0240 C.3   401  4WI401     -0.0177
     20  C2       -20.4530    4.0450   25.1380 C.3   401  4WI401      0.0672
     21  C14      -20.1880    7.1160   30.6190 C.3   401  4WI401      0.1047
     22  C22      -18.6970    6.1400   33.9820 C.3   401  4WI401      0.4694
     23  C15      -19.8000    8.3980   29.8540 C.3   401  4WI401     -0.0108
     24  N5       -21.7200    3.3310   23.1580 N.2   401  4WI401     -0.3003
     25  N2       -16.5140    6.6900   25.1500 N.am  401  4WI401     -0.3151
     26  N3       -21.5360    5.3380   29.5890 N.am  401  4WI401     -0.2878
     27  N1       -20.8420    3.7130   26.5020 N.am  401  4WI401     -0.3054
     28  N4       -19.2880    6.8620   31.7350 N.am  401  4WI401     -0.2962
     29  O1       -16.0350    4.4720   25.5460 O.2   401  4WI401     -0.2755
     30  O2       -21.9770    5.6380   26.8850 O.2   401  4WI401     -0.2737
     31  O3       -19.3290    5.3530   29.1950 O.2   401  4WI401     -0.2735
     32  O4       -20.9100    6.5400   33.2680 O.2   401  4WI401     -0.2660
     33  F1       -18.0080    5.1010   33.5380 F     401  4WI401     -0.1620
     34  F2       -19.2770    5.7950   35.1340 F     401  4WI401     -0.1620
     35  F3       -17.8080    7.0990   34.2320 F     401  4WI401     -0.1620
     36  H5       -19.1370    6.5380   24.1040 H     401  4WI401      0.0288
     37  H6       -19.6060    7.0270   25.5470 H     401  4WI401      0.0288
     38  H7       -17.6920    8.1660   25.9100 H     401  4WI401      0.0462
     39  H8       -17.6110    8.1860   24.3130 H     401  4WI401      0.0462
     40  H11      -22.7130    5.9200   31.1520 H     401  4WI401      0.0468
     41  H12      -23.0770    6.6620   29.7870 H     401  4WI401      0.0468
     42  H4       -18.5380    5.3610   26.6100 H     401  4WI401      0.0395
     43  H10      -21.0110    3.4720   28.9710 H     401  4WI401      0.0600
     44  H13      -24.7320    4.9600   29.5770 H     401  4WI401      0.0325
     45  H14      -23.6150    3.2100   28.2530 H     401  4WI401      0.0332
     46  H23      -21.6570    3.3000   31.1750 H     401  4WI401      0.0235
     47  H24      -22.6140    2.2820   31.9090 H     401  4WI401      0.0235
     48  H25      -22.7200    3.8300   32.2160 H     401  4WI401      0.0235
     49  H26      -25.2390    2.2990   29.8010 H     401  4WI401      0.0235
     50  H27      -25.4600    3.0540   31.1720 H     401  4WI401      0.0235
     51  H28      -24.6250    1.7100   31.1330 H     401  4WI401      0.0235
     52  H17      -20.0490    9.2480   31.7350 H     401  4WI401      0.0236
     53  H19      -18.9150    9.9680   30.8930 H     401  4WI401      0.0236
     54  H18      -20.4410   10.2440   30.5660 H     401  4WI401      0.0236
     55  H20      -21.5290    7.9870   28.7810 H     401  4WI401      0.0236
     56  H21      -20.4110    8.6680   27.8870 H     401  4WI401      0.0236
     57  H22      -21.2530    9.5420   28.9070 H     401  4WI401      0.0236
     58  H29      -18.0250    7.4100   29.4230 H     401  4WI401      0.0236
     59  H30      -17.8220    8.9740   29.5700 H     401  4WI401      0.0236
     60  H31      -18.4730    8.3790   28.2530 H     401  4WI401      0.0236
     61  H2       -18.6780    4.0510   24.0800 H     401  4WI401      0.0294
     62  H3       -18.5520    3.3160   25.4790 H     401  4WI401      0.0294
     63  H32      -20.8260    4.9320   24.8920 H     401  4WI401      0.0564
     64  H15      -21.0760    7.3030   31.0070 H     401  4WI401      0.0600
     65  H36      -21.9690    2.7250   22.6200 H     401  4WI401      0.1865
     66  H9       -15.6930    6.9350   24.9850 H     401  4WI401      0.1487
     67  H1       -20.6310    2.9270   26.8100 H     401  4WI401      0.1494
     68  H16      -18.4240    6.9020   31.6160 H     401  4WI401      0.1497
@<TRIPOS>BOND
     1    65    24    1
     2    24     2    2
     3    61    19    1
     4    36     6    1
     5     2    20    1
     6    39     7    1
     7    63    20    1
     8    66    25    1
     9    19    20    1
    10    19    62    1
    11    19     9    1
    12     6     7    1
    13     6    37    1
    14     6     9    1
    15     7    25    1
    16     7    38    1
    17    20    27    1
    18    25     1   am
    19     1    29    2
    20     1     9    1
    21     9    42    1
    22    27    67    1
    23    27     3   am
    24    30     3    2
    25     3    10    1
    26    56    17    1
    27    60    18    1
    28    45    12    1
    29    10    43    1
    30    10    12    1
    31    10    26    1
    32    17    55    1
    33    17    57    1
    34    17    23    1
    35    12    11    1
    36    12    13    1
    37    31     4    2
    38    18    58    1
    39    18    59    1
    40    18    23    1
    41    44    11    1
    42    26     4   am
    43    26     8    1
    44     4    21    1
    45    41     8    1
    46    49    15    1
    47    11     8    1
    48    11    13    1
    49    23    21    1
    50    23    16    1
    51     8    40    1
    52    13    15    1
    53    13    14    1
    54    54    16    1
    55    21    64    1
    56    21    28    1
    57    15    51    1
    58    15    50    1
    59    16    53    1
    60    16    52    1
    61    46    14    1
    62    14    47    1
    63    14    48    1
    64    68    28    1
    65    28     5   am
    66     5    32    2
    67     5    22    1
    68    33    22    1
    69    22    35    1
    70    22    34    1
