UVJ
  -OEChem-02242320043D

 28 29  0     0  0  0  0  0  0999 V2000
   -0.1180   -0.5430   -0.3340 N   0  0  0  0  0  0  0  0  0  0  0  0
   -3.7070    1.4050    0.2230 C   0  0  0  0  0  0  0  0  0  0  0  0
   -2.6440    2.2100   -0.1580 C   0  0  0  0  0  0  0  0  0  0  0  0
   -1.3910    1.6660   -0.3540 C   0  0  0  0  0  0  0  0  0  0  0  0
   -1.2030    0.3000   -0.1990 C   0  0  0  0  0  0  0  0  0  0  0  0
    1.2420   -0.1530   -0.7150 C   0  0  0  0  0  0  0  0  0  0  0  0
    3.4450    0.5870    0.1500 C   0  0  0  0  0  0  0  0  0  0  0  0
   -1.8100   -1.7860    0.2610 N   0  0  0  0  0  0  0  0  0  0  0  0
    0.3240   -3.0330   -0.0600 C   0  0  0  0  0  0  0  0  0  0  0  0
    3.7670    0.6000   -1.0200 O   0  0  0  0  0  0  0  0  0  0  0  0
   -0.5440   -1.8010   -0.0420 C   0  0  0  0  0  0  0  0  0  0  0  0
   -2.2840   -0.5160    0.1780 C   0  0  0  0  0  0  0  0  0  0  0  0
   -3.5380    0.0600    0.3920 C   0  0  0  0  0  0  0  0  0  0  0  0
    2.0460    0.1860    0.5420 C   0  0  0  0  0  0  0  0  0  0  0  0
    4.3380    0.9300    1.0980 N   0  0  0  0  0  0  0  0  0  0  0  0
   -4.6830    1.8440    0.3730 H   0  0  0  0  0  0  0  0  0  0  0  0
   -2.7970    3.2690   -0.3040 H   0  0  0  0  0  0  0  0  0  0  0  0
   -0.5670    2.2970   -0.6510 H   0  0  0  0  0  0  0  0  0  0  0  0
    1.7220   -0.9780   -1.2420 H   0  0  0  0  0  0  0  0  0  0  0  0
    1.2000    0.7200   -1.3660 H   0  0  0  0  0  0  0  0  0  0  0  0
    0.2940   -3.4830   -1.0520 H   0  0  0  0  0  0  0  0  0  0  0  0
    1.3500   -2.7570    0.1830 H   0  0  0  0  0  0  0  0  0  0  0  0
   -0.0450   -3.7480    0.6750 H   0  0  0  0  0  0  0  0  0  0  0  0
   -4.3730   -0.5570    0.6890 H   0  0  0  0  0  0  0  0  0  0  0  0
    1.5660    1.0100    1.0690 H   0  0  0  0  0  0  0  0  0  0  0  0
    2.0870   -0.6870    1.1930 H   0  0  0  0  0  0  0  0  0  0  0  0
    5.2390    1.1880    0.8460 H   0  0  0  0  0  0  0  0  0  0  0  0
    4.0810    0.9200    2.0340 H   0  0  0  0  0  0  0  0  0  0  0  0
  9 11  1  0  0  0  0
  8 11  2  0  0  0  0
  8 12  1  0  0  0  0
  1 11  1  0  0  0  0
 12 13  2  0  0  0  0
  5 12  1  0  0  0  0
  2 13  1  0  0  0  0
  7 10  2  0  0  0  0
  1  5  1  0  0  0  0
  1  6  1  0  0  0  0
  7 14  1  0  0  0  0
  6 14  1  0  0  0  0
  4  5  2  0  0  0  0
  2  3  2  0  0  0  0
  7 15  1  0  0  0  0
  3  4  1  0  0  0  0
  2 16  1  0  0  0  0
  3 17  1  0  0  0  0
  4 18  1  0  0  0  0
  6 19  1  0  0  0  0
  6 20  1  0  0  0  0
  9 21  1  0  0  0  0
  9 22  1  0  0  0  0
  9 23  1  0  0  0  0
 13 24  1  0  0  0  0
 14 25  1  0  0  0  0
 14 26  1  0  0  0  0
 15 27  1  0  0  0  0
 15 28  1  0  0  0  0
M  END
> <OPENEYE_ISO_SMILES>
Cc1nc2ccccc2n1CCC(=O)N

> <OPENEYE_INCHI>
InChI=1S/C11H13N3O/c1-8-13-9-4-2-3-5-10(9)14(8)7-6-11(12)15/h2-5H,6-7H2,1H3,(H2,12,15)

> <OPENEYE_INCHIKEY>
HZTUIHZIQKFSIL-UHFFFAOYSA-N

> <FORMULA>
C11H13N3O

$$$$
