@<TRIPOS>MOLECULE
/home/pku/3cl/gett_pdb/5RUM/5RUM_mol2/ligand/5RUM_52F.pdb
 25 26 0 0 0
SMALL
GASTEIGER

@<TRIPOS>ATOM
      1  C10      -45.2630  -36.1630   -2.8770 C.ar  201  52F201     -0.0596
      2  C13      -46.1920  -34.5780   -0.7760 C.ar  201  52F201      0.0676
      3  C15      -45.9690  -32.6160    0.6910 C.ar  201  52F201      0.2706
      4  O01      -42.9350  -31.4160    3.4810 O.co2 201  52F201     -0.3090
      5  C02      -43.1060  -32.0760    2.4350 C.2   201  52F201      0.0874
      6  O03      -43.4360  -33.2410    2.4910 O.co2 201  52F201     -0.8476
      7  C04      -42.8020  -31.4540    1.0620 C.3   201  52F201      0.0016
      8  C05      -44.0040  -31.0200    0.3220 C.3   201  52F201      0.0007
      9  C06      -44.7970  -32.2380   -0.0550 C.ar  201  52F201      0.1064
     10  N07      -44.3060  -33.0300   -1.0910 N.ar  201  52F201     -0.2447
     11  C08      -45.0110  -34.2400   -1.4560 C.ar  201  52F201      0.0877
     12  C09      -44.5470  -35.0050   -2.4950 C.ar  201  52F201     -0.0343
     13  C11      -46.4100  -36.4910   -2.1950 C.ar  201  52F201     -0.0597
     14  C12      -46.8820  -35.7380   -1.1360 C.ar  201  52F201     -0.0362
     15  N14      -46.6890  -33.7920    0.3250 N.ar  201  52F201     -0.3194
     16  O16      -46.3590  -31.9540    1.5570 O.2   201  52F201     -0.2659
     17  H1       -44.9590  -36.6980   -3.5740 H     201  52F201      0.0618
     18  H3       -42.2250  -30.6850    1.1920 H     201  52F201      0.0336
     19  H4       -42.3280  -32.1080    0.5250 H     201  52F201      0.0336
     20  H5       -44.5410  -30.4400    0.8840 H     201  52F201      0.0334
     21  H6       -43.7350  -30.5420   -0.4770 H     201  52F201      0.0334
     22  H7       -43.7830  -34.7510   -2.9600 H     201  52F201      0.0639
     23  H8       -46.8620  -37.2700   -2.4280 H     201  52F201      0.0618
     24  H9       -47.6570  -35.9870   -0.6860 H     201  52F201      0.0639
     25  H10      -47.4090  -34.0160    0.7380 H     201  52F201      0.1690
@<TRIPOS>UNITY_ATOM_ATTR
6 1
charge -1
@<TRIPOS>BOND
     1    17     1    1
     2    22    12    1
     3     1    12   ar
     4     1    13   ar
     5    12    11   ar
     6    23    13    1
     7    13    14   ar
     8    11    10   ar
     9    11     2   ar
    10    14     2   ar
    11    14    24    1
    12    10     9   ar
    13     2    15   ar
    14    21     8    1
    15     9     8    1
    16     9     3   ar
    17     8    20    1
    18     8     7    1
    19    15     3   ar
    20    15    25    1
    21    19     7    1
    22     3    16    2
    23     7    18    1
    24     7     5    1
    25     5     6   ar
    26     5     4   ar
