@<TRIPOS>MOLECULE
/home/pku/3cl/gett_pdb/7C2J/7C2J_mol2/ligand/7C2J_SAM.pdb
 27 29 0 0 0
SMALL
GASTEIGER

@<TRIPOS>ATOM
      1  N        -85.6280   19.1690   24.3200 N.3   301  SAM301     -0.1208
      2  CA       -86.9310   18.6180   24.6510 C.3   301  SAM301      0.1952
      3  C        -88.0790   19.3800   24.0130 C.2   301  SAM301      0.3819
      4  O        -87.9780   19.8340   22.8740 O.co2 301  SAM301     -0.2441
      5  OXT      -89.1330   19.5290   24.6230 O.co2 301  SAM301     -0.2441
      6  CB       -87.1020   18.5330   26.1600 C.3   301  SAM301      0.0414
      7  CG       -85.8510   18.0470   26.8780 C.3   301  SAM301      0.0503
      8  SD       -86.1470   17.6580   28.6170 S.3   301  SAM301     -0.1761
      9  CE       -85.8100   19.2790   29.3380 C.3   301  SAM301      0.0590
     10  C5'      -84.6230   16.7890   29.0320 C.3   301  SAM301      0.0805
     11  C4'      -84.5280   15.4220   28.3740 C.3   301  SAM301      0.1602
     12  O4'      -83.2390   14.8860   28.5730 O.3   301  SAM301     -0.3324
     13  C3'      -85.4980   14.4220   28.9750 C.3   301  SAM301      0.2144
     14  O3'      -86.3790   13.9750   27.9810 O.3   301  SAM301     -0.2176
     15  C2'      -84.6520   13.2540   29.4230 C.3   301  SAM301      0.2336
     16  O2'      -85.2470   12.0410   29.0350 O.3   301  SAM301     -0.2155
     17  C1'      -83.3520   13.4870   28.6820 C.3   301  SAM301      0.2409
     18  N9       -82.1800   12.8870   29.3320 N.ar  301  SAM301     -0.2693
     19  C8       -81.7050   13.1330   30.5870 C.ar  301  SAM301      0.1816
     20  N7       -80.6090   12.3730   30.7790 N.ar  301  SAM301     -0.2193
     21  C5       -80.3770   11.6490   29.6690 C.ar  301  SAM301      0.1518
     22  C6       -79.3990   10.7260   29.3420 C.ar  301  SAM301      0.1919
     23  N6       -78.4520   10.4180   30.2250 N.pl3 301  SAM301     -0.1054
     24  N1       -79.4170   10.1310   28.1000 N.ar  301  SAM301     -0.2040
     25  C2       -80.4050   10.4590   27.2030 C.ar  301  SAM301      0.2016
     26  N3       -81.3740   11.3780   27.5400 N.ar  301  SAM301     -0.2048
     27  C4       -81.3570   11.9650   28.7550 C.ar  301  SAM301      0.1692
@<TRIPOS>BOND
     1     4     3   ar
     2     3     5   ar
     3     3     2    1
     4     1     2    1
     5     2     6    1
     6     6     7    1
     7     7     8    1
     8    25    26   ar
     9    25    24   ar
    10    26    27   ar
    11    14    13    1
    12    24    22   ar
    13    11    12    1
    14    11    13    1
    15    11    10    1
    16    12    17    1
    17     8    10    1
    18     8     9    1
    19    17    18    1
    20    17    15    1
    21    27    18   ar
    22    27    21   ar
    23    13    15    1
    24    16    15    1
    25    18    19   ar
    26    22    21   ar
    27    22    23    1
    28    21    20   ar
    29    19    20   ar
