@<TRIPOS>MOLECULE
/home/pku/3cl/gett_pdb/5SRI/5SRI_mol2/ligand/5SRI_R9F.pdb
 22 24 0 0 0
SMALL
GASTEIGER

@<TRIPOS>ATOM
      1  C15      -49.7790  -28.9890    3.3650 C.ar  201  R9F201     -0.0257
      2  C14      -48.3930  -29.1190    3.3590 C.ar  201  R9F201     -0.0491
      3  C13      -47.6970  -29.1660    4.5910 C.ar  201  R9F201      0.0124
      4  C12      -46.2890  -29.2850    4.9660 C.ar  201  R9F201      0.0659
      5  C10      -45.0410  -29.4070    4.3120 C.ar  201  R9F201      0.1292
      6  C02      -50.4710  -28.9220    4.5770 C.ar  201  R9F201      0.1254
      7  C03      -49.7980  -28.9690    5.7840 C.ar  201  R9F201     -0.0025
      8  C04      -48.3920  -29.0810    5.7840 C.ar  201  R9F201      0.0515
      9  C06      -46.2620  -29.2620    6.3340 C.ar  201  R9F201      0.1442
     10  C08      -43.9500  -29.4750    6.3320 C.ar  201  R9F201      0.1204
     11  F01      -51.8250  -28.8150    4.5770 F     201  R9F201     -0.2054
     12  N05      -47.5180  -29.1490    6.8120 N.ar  201  R9F201     -0.3389
     13  N07      -45.0820  -29.3610    6.9780 N.ar  201  R9F201     -0.2178
     14  N09      -43.9160  -29.4920    5.0140 N.ar  201  R9F201     -0.2204
     15  N11      -44.9770  -29.4350    2.8860 N.pl3 201  R9F201     -0.3425
     16 H151      -50.2540  -28.9720    2.5640 H     201  R9F201      0.0646
     17 H141      -47.9360  -29.1760    2.5530 H     201  R9F201      0.0625
     18 H031      -50.2720  -28.9170    6.5850 H     201  R9F201      0.0667
     19 H081      -43.1600  -29.5390    6.8090 H     201  R9F201      0.1048
     20 H051      -47.7260  -29.1270    7.6520 H     201  R9F201      0.1673
     21 H111      -45.4040  -30.0430    2.4600 H     201  R9F201      0.1437
     22 H112      -44.5070  -28.8540    2.4820 H     201  R9F201      0.1437
@<TRIPOS>BOND
     1    21    15    1
     2    22    15    1
     3    17     2    1
     4    16     1    1
     5    15     5    1
     6     2     1   ar
     7     2     3   ar
     8     1     6   ar
     9     5     4   ar
    10     5    14   ar
    11    11     6    1
    12     6     7   ar
    13     3     4   ar
    14     3     8   ar
    15     4     9   ar
    16    14    10   ar
    17     7     8   ar
    18     7    18    1
    19     8    12   ar
    20    10    19    1
    21    10    13   ar
    22     9    12   ar
    23     9    13   ar
    24    12    20    1
