@<TRIPOS>MOLECULE
/home/pku/3cl/gett_pdb/7SDA/7SDA_mol2/ligand/7SDA_8UI.pdb
 33 35 0 0 0
SMALL
GASTEIGER

@<TRIPOS>ATOM
      1  C1        -8.5270  -17.5080  -20.0110 C.2   401  8UI401      0.0114
      2  C10       -5.8260  -11.5790  -18.8260 C.3   401  8UI401      0.0001
      3  C11       -5.9980  -14.0260  -18.6050 C.3   401  8UI401      0.0001
      4  C12       -9.3280  -15.9960  -18.0730 C.2   401  8UI401      0.2683
      5  C13       -6.4550  -12.5640  -16.6710 C.3   401  8UI401      0.0001
      6  C14       -8.9860  -13.6270  -17.8740 C.3   401  8UI401      0.1728
      7  C15      -10.4100  -13.1550  -17.8690 C.2   401  8UI401      0.2612
      8  C16       -8.5960  -19.0820  -23.2720 C.3   401  8UI401      0.2525
      9  C17      -12.2940  -12.1450  -16.7480 C.3   401  8UI401      0.1287
     10  C19      -13.1690  -12.9330  -15.7570 C.3   401  8UI401      0.0335
     11  C2        -8.5410  -18.9410  -20.1080 C.ar  401  8UI401      0.0493
     12  C20      -13.3830  -14.3800  -16.2270 C.3   401  8UI401      0.0818
     13  C21      -14.1800  -14.4620  -17.5240 C.3   401  8UI401      0.0326
     14  C22      -15.0410  -15.7240  -17.3970 C.3   401  8UI401      0.1156
     15  C24      -14.2050  -15.2370  -15.2980 C.2   401  8UI401      0.2410
     16  C3        -9.0790  -19.5050  -18.9770 C.ar  401  8UI401      0.0795
     17  C30       -9.0830  -17.2930  -18.7480 C.3   401  8UI401      0.2027
     18  C34       -8.1010  -12.5860  -18.5610 C.3   401  8UI401      0.0311
     19  C4        -9.1960  -20.8820  -18.8300 C.ar  401  8UI401      0.0189
     20  C5        -8.7700  -21.7290  -19.8430 C.ar  401  8UI401      0.0046
     21  C6        -8.2300  -21.1780  -21.0000 C.ar  401  8UI401      0.0370
     22  C7        -8.1040  -19.7920  -21.1120 C.ar  401  8UI401      0.1398
     23  C8       -12.2760  -10.6540  -16.4040 C.3   401  8UI401      0.2036
     24  C9        -6.6160  -12.7030  -18.1710 C.3   401  8UI401      0.0021
     25  N1        -9.3910  -18.4750  -18.1760 N.2   401  8UI401     -0.2585
     26  N13       -8.9430  -14.8520  -18.6380 N.am  401  8UI401     -0.1959
     27  N16      -10.9090  -12.6180  -16.7640 N.am  401  8UI401     -0.2030
     28  N23      -15.0850  -15.9820  -15.9690 N.am  401  8UI401     -0.2054
     29  O2        -7.6060  -19.2470  -22.2530 O.3   401  8UI401     -0.4714
     30  O26      -14.0630  -15.2470  -14.0930 O.2   401  8UI401     -0.2734
     31  O33       -9.8810  -16.0210  -16.9860 O.2   401  8UI401     -0.2709
     32  O38      -11.0690  -13.2770  -18.8870 O.2   401  8UI401     -0.2715
     33  O9       -13.6220  -10.1350  -16.4290 O.3   401  8UI401     -0.2185
@<TRIPOS>BOND
     1     8    29    1
     2    29    22    1
     3    22    21   ar
     4    22    11   ar
     5    21    20   ar
     6    11     1    2
     7    11    16   ar
     8     1    17    1
     9    20    19   ar
    10    16    19   ar
    11    16    25    2
    12    32     7    2
    13     2    24    1
    14    17    25    1
    15    17     4    1
    16    26     4   am
    17    26     6    1
    18     3    24    1
    19    18    24    1
    20    18     6    1
    21    24     5    1
    22     4    31    2
    23     6     7    1
    24     7    27   am
    25    13    14    1
    26    13    12    1
    27    14    28    1
    28    27     9    1
    29     9    23    1
    30     9    10    1
    31    33    23    1
    32    12    10    1
    33    12    15    1
    34    28    15   am
    35    15    30    2
