RBB
  -OEChem-02242320043D

 45 48  0     1  0  0  0  0  0999 V2000
   -1.1760    0.7180    0.8610 C   0  0  0  0  0  0  0  0  0  0  0  0
    2.1040    3.2300    0.5920 C   0  0  0  0  0  0  0  0  0  0  0  0
    3.3390    1.2870    0.5300 C   0  0  0  0  0  0  0  0  0  0  0  0
    1.8590   -1.9940   -0.2510 C   0  0  0  0  0  0  0  0  0  0  0  0
    2.5260   -3.1980   -0.3110 C   0  0  0  0  0  0  0  0  0  0  0  0
    3.8900   -3.2540   -0.0690 C   0  0  0  0  0  0  0  0  0  0  0  0
   -2.4360   -0.0660    0.4850 C   0  0  1  0  0  0  0  0  0  0  0  0
   -2.6980    0.9920   -3.0810 C   0  0  0  0  0  0  0  0  0  0  0  0
   -2.0480    0.3860   -1.8350 C   0  0  0  0  0  0  0  0  0  0  0  0
   -0.7840    1.1740   -1.4830 C   0  0  0  0  0  0  0  0  0  0  0  0
    0.9690    1.2890    0.0820 C   0  0  0  0  0  0  0  0  0  0  0  0
    2.1720    0.5830    0.1950 C   0  0  0  0  0  0  0  0  0  0  0  0
    2.5590   -0.8290    0.0530 C   0  0  0  0  0  0  0  0  0  0  0  0
    3.9410   -0.8840    0.2970 C   0  0  0  0  0  0  0  0  0  0  0  0
    4.5960   -2.1090    0.2320 C   0  0  0  0  0  0  0  0  0  0  0  0
   -3.4790    0.0800    1.5950 C   0  0  0  0  0  0  0  0  0  0  0  0
   -4.6700   -0.7890    1.2830 C   0  0  0  0  0  0  0  0  0  0  0  0
   -1.6800   -1.0740   -2.1100 C   0  0  0  0  0  0  0  0  0  0  0  0
   -0.2070    0.6370   -0.2420 N   0  0  1  0  0  0  0  0  0  0  0  0
    4.3810    0.3950    0.5930 N   0  0  0  0  0  0  0  0  0  0  0  0
    3.2540    2.6040    0.7180 N   0  0  0  0  0  0  0  0  0  0  0  0
    0.9840    2.6050    0.2830 N   0  0  0  0  0  0  0  0  0  0  0  0
   -2.9650    0.4500   -0.7390 O   0  0  0  0  0  0  0  0  0  0  0  0
   -4.6830   -1.4570    0.2760 O   0  0  0  0  0  0  0  0  0  0  0  0
   -5.7160   -0.8210    2.1240 O   0  0  0  0  0  0  0  0  0  0  0  0
   -1.4360    1.7610    1.0410 H   0  0  0  0  0  0  0  0  0  0  0  0
   -0.7370    0.2920    1.7630 H   0  0  0  0  0  0  0  0  0  0  0  0
    2.0740    4.2980    0.7530 H   0  0  0  0  0  0  0  0  0  0  0  0
    0.7970   -1.9540   -0.4410 H   0  0  0  0  0  0  0  0  0  0  0  0
    1.9850   -4.1020   -0.5470 H   0  0  0  0  0  0  0  0  0  0  0  0
    4.4050   -4.2030   -0.1180 H   0  0  0  0  0  0  0  0  0  0  0  0
   -2.1850   -1.1190    0.3580 H   0  0  0  0  0  0  0  0  0  0  0  0
   -1.9970    0.9460   -3.9150 H   0  0  0  0  0  0  0  0  0  0  0  0
   -3.5970    0.4300   -3.3310 H   0  0  0  0  0  0  0  0  0  0  0  0
   -2.9610    2.0310   -2.8840 H   0  0  0  0  0  0  0  0  0  0  0  0
   -0.0590    1.0810   -2.2920 H   0  0  0  0  0  0  0  0  0  0  0  0
   -1.0380    2.2250   -1.3400 H   0  0  0  0  0  0  0  0  0  0  0  0
    5.6580   -2.1630    0.4180 H   0  0  0  0  0  0  0  0  0  0  0  0
   -3.0430   -0.2280    2.5450 H   0  0  0  0  0  0  0  0  0  0  0  0
   -3.7960    1.1210    1.6610 H   0  0  0  0  0  0  0  0  0  0  0  0
   -1.2190   -1.5050   -1.2210 H   0  0  0  0  0  0  0  0  0  0  0  0
   -2.5800   -1.6350   -2.3600 H   0  0  0  0  0  0  0  0  0  0  0  0
   -0.9790   -1.1210   -2.9430 H   0  0  0  0  0  0  0  0  0  0  0  0
    5.2980    0.6290    0.8060 H   0  0  0  0  0  0  0  0  0  0  0  0
   -6.4560   -1.3940    1.8810 H   0  0  0  0  0  0  0  0  0  0  0  0
 17 24  2  0  0  0  0
 16 17  1  0  0  0  0
 17 25  1  0  0  0  0
  7 16  1  0  0  0  0
  7 23  1  0  0  0  0
  9 23  1  0  0  0  0
  9 18  1  0  0  0  0
  1  7  1  0  0  0  0
  9 10  1  0  0  0  0
  8  9  1  0  0  0  0
  1 19  1  0  0  0  0
 10 19  1  0  0  0  0
 11 19  1  0  0  0  0
  4  5  2  0  0  0  0
  4 13  1  0  0  0  0
  5  6  1  0  0  0  0
 11 22  2  0  0  0  0
 11 12  1  0  0  0  0
  2 22  1  0  0  0  0
 12 13  1  0  0  0  0
 13 14  2  0  0  0  0
  3 12  2  0  0  0  0
  6 15  2  0  0  0  0
  2 21  2  0  0  0  0
 14 15  1  0  0  0  0
 14 20  1  0  0  0  0
  3 21  1  0  0  0  0
  3 20  1  0  0  0  0
  1 26  1  0  0  0  0
  1 27  1  0  0  0  0
  2 28  1  0  0  0  0
  4 29  1  0  0  0  0
  5 30  1  0  0  0  0
  6 31  1  0  0  0  0
  7 32  1  0  0  0  0
  8 33  1  0  0  0  0
  8 34  1  0  0  0  0
  8 35  1  0  0  0  0
 10 36  1  0  0  0  0
 10 37  1  0  0  0  0
 15 38  1  0  0  0  0
 16 39  1  0  0  0  0
 16 40  1  0  0  0  0
 18 41  1  0  0  0  0
 18 42  1  0  0  0  0
 18 43  1  0  0  0  0
 20 44  1  0  0  0  0
 25 45  1  0  0  0  0
M  END
> <OPENEYE_ISO_SMILES>
CC1(C[N@](C[C@H](O1)CC(=O)O)c2c3c4ccccc4[nH]c3ncn2)C

> <OPENEYE_INCHI>
InChI=1S/C18H20N4O3/c1-18(2)9-22(8-11(25-18)7-14(23)24)17-15-12-5-3-4-6-13(12)21-16(15)19-10-20-17/h3-6,10-11H,7-9H2,1-2H3,(H,23,24)(H,19,20,21)/t11-/m1/s1

> <OPENEYE_INCHIKEY>
RSIOYFDJMJLVBY-LLVKDONJSA-N

> <FORMULA>
C18H20N4O3

$$$$
