K1A
  -OEChem-02242320033D

 26 27  0     0  0  0  0  0  0999 V2000
    0.7810   -0.1040   -0.7000 N   0  0  0  0  0  0  0  0  0  0  0  0
   -2.2010    1.3180   -0.0270 C   0  0  0  0  0  0  0  0  0  0  0  0
   -1.7940    2.7090   -0.4420 C   0  0  0  0  0  0  0  0  0  0  0  0
   -2.3350   -0.8490    0.1900 C   0  0  0  0  0  0  0  0  0  0  0  0
   -2.1450   -2.3400    0.0960 C   0  0  0  0  0  0  0  0  0  0  0  0
    1.3070   -1.2440   -0.2200 C   0  0  0  0  0  0  0  0  0  0  0  0
    1.4970    1.0510   -0.4720 N   0  0  0  0  0  0  0  0  0  0  0  0
    3.5580    2.0500    0.5480 C   0  0  0  0  0  0  0  0  0  0  0  0
   -3.2380   -0.2000    0.9390 O   0  0  0  0  0  0  0  0  0  0  0  0
    2.6060    0.9410    0.1790 C   0  0  0  0  0  0  0  0  0  0  0  0
   -0.4880   -0.0910   -1.4330 C   0  0  0  0  0  0  0  0  0  0  0  0
   -1.6260    0.1020   -0.4640 C   0  0  0  0  0  0  0  0  0  0  0  0
   -3.1470    0.9980    0.8080 N   0  0  0  0  0  0  0  0  0  0  0  0
    0.8420   -2.3660   -0.3100 O   0  0  0  0  0  0  0  0  0  0  0  0
    2.7780   -0.7830    0.5480 S   0  0  0  0  0  0  0  0  0  0  0  0
   -2.3650    3.0080   -1.3210 H   0  0  0  0  0  0  0  0  0  0  0  0
   -1.9930    3.4040    0.3750 H   0  0  0  0  0  0  0  0  0  0  0  0
   -0.7300    2.7210   -0.6780 H   0  0  0  0  0  0  0  0  0  0  0  0
   -1.4300   -2.6640    0.8520 H   0  0  0  0  0  0  0  0  0  0  0  0
   -3.0990   -2.8400    0.2610 H   0  0  0  0  0  0  0  0  0  0  0  0
   -1.7670   -2.5970   -0.8940 H   0  0  0  0  0  0  0  0  0  0  0  0
    3.2830    2.4560    1.5210 H   0  0  0  0  0  0  0  0  0  0  0  0
    4.5740    1.6570    0.5920 H   0  0  0  0  0  0  0  0  0  0  0  0
    3.5060    2.8390   -0.2030 H   0  0  0  0  0  0  0  0  0  0  0  0
   -0.4820    0.7260   -2.1540 H   0  0  0  0  0  0  0  0  0  0  0  0
   -0.6140   -1.0380   -1.9570 H   0  0  0  0  0  0  0  0  0  0  0  0
  9 13  1  0  0  0  0
  2 13  2  0  0  0  0
  4  9  1  0  0  0  0
  2  3  1  0  0  0  0
  2 12  1  0  0  0  0
  4  5  1  0  0  0  0
  4 12  2  0  0  0  0
 11 12  1  0  0  0  0
  1 11  1  0  0  0  0
  1  6  1  0  0  0  0
  1  7  1  0  0  0  0
  6 14  2  0  0  0  0
  6 15  1  0  0  0  0
  7 10  2  0  0  0  0
 10 15  1  0  0  0  0
  8 10  1  0  0  0  0
  3 16  1  0  0  0  0
  3 17  1  0  0  0  0
  3 18  1  0  0  0  0
  5 19  1  0  0  0  0
  5 20  1  0  0  0  0
  5 21  1  0  0  0  0
  8 22  1  0  0  0  0
  8 23  1  0  0  0  0
  8 24  1  0  0  0  0
 11 25  1  0  0  0  0
 11 26  1  0  0  0  0
M  END
> <OPENEYE_ISO_SMILES>
Cc1c(c(on1)C)Cn2c(=O)sc(n2)C

> <OPENEYE_INCHI>
InChI=1S/C9H11N3O2S/c1-5-8(6(2)14-11-5)4-12-9(13)15-7(3)10-12/h4H2,1-3H3

> <OPENEYE_INCHIKEY>
QMZRSGJUZDOFDN-UHFFFAOYSA-N

> <FORMULA>
C9H11N3O2S

$$$$
