RZ9
  -OEChem-02242320043D

 35 38  0     1  0  0  0  0  0999 V2000
   -5.1390   -0.4560   -0.3060 C   0  0  0  0  0  0  0  0  0  0  0  0
   -3.0220    0.0680   -0.1170 C   0  0  0  0  0  0  0  0  0  0  0  0
   -1.7120    0.7880   -0.3050 C   0  0  1  0  0  0  0  0  0  0  0  0
   -1.6320    1.9670    0.6690 C   0  0  0  0  0  0  0  0  0  0  0  0
   -0.2730    2.6560    0.5130 C   0  0  0  0  0  0  0  0  0  0  0  0
    0.8410    1.6380    0.7670 C   0  0  0  0  0  0  0  0  0  0  0  0
    1.7890   -0.3420   -0.0730 C   0  0  0  0  0  0  0  0  0  0  0  0
    3.1090    0.1160   -0.2000 C   0  0  0  0  0  0  0  0  0  0  0  0
    3.7370    1.4130   -0.4440 C   0  0  0  0  0  0  0  0  0  0  0  0
    5.0640    1.2070   -0.4570 C   0  0  0  0  0  0  0  0  0  0  0  0
    4.1600   -0.8120   -0.0790 C   0  0  0  0  0  0  0  0  0  0  0  0
    2.6050   -2.4740    0.2620 C   0  0  0  0  0  0  0  0  0  0  0  0
   -0.5550   -0.1760   -0.0270 C   0  0  0  0  0  0  0  0  0  0  0  0
   -4.5580   -1.3310    0.5430 N   0  0  0  0  0  0  0  0  0  0  0  0
   -3.2070   -0.9640    0.6380 N   0  0  0  0  0  0  0  0  0  0  0  0
    0.7220    0.5300   -0.1890 N   0  0  1  0  0  0  0  0  0  0  0  0
    5.3290   -0.1210   -0.2400 N   0  0  0  0  0  0  0  0  0  0  0  0
    3.8580   -2.0890    0.1500 N   0  0  0  0  0  0  0  0  0  0  0  0
    1.5890   -1.6370    0.1550 N   0  0  0  0  0  0  0  0  0  0  0  0
   -6.3080   -0.4460   -0.6430 O   0  0  0  0  0  0  0  0  0  0  0  0
   -4.1880    0.4050   -0.7030 O   0  0  0  0  0  0  0  0  0  0  0  0
   -1.6410    1.1550   -1.3290 H   0  0  0  0  0  0  0  0  0  0  0  0
   -2.4280    2.6770    0.4460 H   0  0  0  0  0  0  0  0  0  0  0  0
   -1.7420    1.6040    1.6910 H   0  0  0  0  0  0  0  0  0  0  0  0
   -0.1800    3.0530   -0.4980 H   0  0  0  0  0  0  0  0  0  0  0  0
   -0.1940    3.4700    1.2340 H   0  0  0  0  0  0  0  0  0  0  0  0
    1.8100    2.1220    0.6430 H   0  0  0  0  0  0  0  0  0  0  0  0
    0.7560    1.2520    1.7830 H   0  0  0  0  0  0  0  0  0  0  0  0
    3.2310    2.3560   -0.5870 H   0  0  0  0  0  0  0  0  0  0  0  0
    5.8100    1.9710   -0.6160 H   0  0  0  0  0  0  0  0  0  0  0  0
    2.3990   -3.5170    0.4480 H   0  0  0  0  0  0  0  0  0  0  0  0
   -0.6340   -0.5540    0.9920 H   0  0  0  0  0  0  0  0  0  0  0  0
   -0.6010   -1.0100   -0.7280 H   0  0  0  0  0  0  0  0  0  0  0  0
   -4.9900   -2.0700    0.9980 H   0  0  0  0  0  0  0  0  0  0  0  0
    6.2160   -0.5120   -0.2060 H   0  0  0  0  0  0  0  0  0  0  0  0
 14 15  1  0  0  0  0
  1 14  1  0  0  0  0
  2 15  2  0  0  0  0
  4  5  1  0  0  0  0
  3  4  1  0  0  0  0
  1 20  2  0  0  0  0
  1 21  1  0  0  0  0
  2  3  1  0  0  0  0
  2 21  1  0  0  0  0
  5  6  1  0  0  0  0
  3 13  1  0  0  0  0
  6 16  1  0  0  0  0
 13 16  1  0  0  0  0
  7 16  1  0  0  0  0
  7  8  2  0  0  0  0
  7 19  1  0  0  0  0
  8  9  1  0  0  0  0
  9 10  2  0  0  0  0
  8 11  1  0  0  0  0
 12 19  2  0  0  0  0
 10 17  1  0  0  0  0
 11 17  1  0  0  0  0
 11 18  2  0  0  0  0
 12 18  1  0  0  0  0
  3 22  1  0  0  0  0
  4 23  1  0  0  0  0
  4 24  1  0  0  0  0
  5 25  1  0  0  0  0
  5 26  1  0  0  0  0
  6 27  1  0  0  0  0
  6 28  1  0  0  0  0
  9 29  1  0  0  0  0
 10 30  1  0  0  0  0
 12 31  1  0  0  0  0
 13 32  1  0  0  0  0
 13 33  1  0  0  0  0
 14 34  1  0  0  0  0
 17 35  1  0  0  0  0
M  END
> <OPENEYE_ISO_SMILES>
c1c[nH]c2c1c(ncn2)[N@@]3CCC[C@@H](C3)c4n[nH]c(=O)o4

> <OPENEYE_INCHI>
InChI=1S/C13H14N6O2/c20-13-18-17-12(21-13)8-2-1-5-19(6-8)11-9-3-4-14-10(9)15-7-16-11/h3-4,7-8H,1-2,5-6H2,(H,18,20)(H,14,15,16)/t8-/m0/s1

> <OPENEYE_INCHIKEY>
FSJZPCQWTVULBE-QMMMGPOBSA-N

> <FORMULA>
C13H14N6O2

$$$$
