WX7
  -OEChem-02242320043D

 35 38  0     1  0  0  0  0  0999 V2000
    0.3630   -1.6130    1.0970 C   0  0  0  0  0  0  0  0  0  0  0  0
    1.4680   -0.3200   -0.5250 C   0  0  0  0  0  0  0  0  0  0  0  0
    2.9860   -0.1410   -2.2540 C   0  0  0  0  0  0  0  0  0  0  0  0
    3.6460    0.6780   -0.2070 C   0  0  0  0  0  0  0  0  0  0  0  0
    2.4220    0.6790    1.7340 C   0  0  0  0  0  0  0  0  0  0  0  0
    2.4000    0.2960    0.3230 C   0  0  0  0  0  0  0  0  0  0  0  0
   -3.7420    1.5730   -0.2910 C   0  0  0  0  0  0  0  0  0  0  0  0
   -2.6380   -0.3140   -0.1840 C   0  0  0  0  0  0  0  0  0  0  0  0
   -1.9850   -1.6070   -0.6000 C   0  0  2  0  0  0  0  0  0  0  0  0
   -1.9000   -2.5480    0.6050 C   0  0  0  0  0  0  0  0  0  0  0  0
   -1.0210   -1.9060    1.6820 C   0  0  0  0  0  0  0  0  0  0  0  0
   -0.5740   -1.3230   -1.1190 C   0  0  0  0  0  0  0  0  0  0  0  0
    3.6190    1.2430    1.9640 C   0  0  0  0  0  0  0  0  0  0  0  0
   -3.3580    1.3760    0.9880 N   0  0  0  0  0  0  0  0  0  0  0  0
   -2.6560    0.1620    1.0170 N   0  0  0  0  0  0  0  0  0  0  0  0
    0.2280   -0.7090   -0.0520 N   0  0  1  0  0  0  0  0  0  0  0  0
    1.8050   -0.5160   -1.7970 N   0  0  0  0  0  0  0  0  0  0  0  0
    3.8900    0.4400   -1.4950 N   0  0  0  0  0  0  0  0  0  0  0  0
    4.3600    1.2480    0.8110 N   0  0  0  0  0  0  0  0  0  0  0  0
   -4.3720    2.5230   -0.7180 O   0  0  0  0  0  0  0  0  0  0  0  0
   -3.2950    0.5280   -1.0070 O   0  0  0  0  0  0  0  0  0  0  0  0
    0.9870   -1.1440    1.8570 H   0  0  0  0  0  0  0  0  0  0  0  0
    0.8250   -2.5460    0.7730 H   0  0  0  0  0  0  0  0  0  0  0  0
    3.2190   -0.3180   -3.2930 H   0  0  0  0  0  0  0  0  0  0  0  0
    1.6280    0.5360    2.4520 H   0  0  0  0  0  0  0  0  0  0  0  0
   -2.5750   -2.0760   -1.3880 H   0  0  0  0  0  0  0  0  0  0  0  0
   -2.9000   -2.7180    1.0050 H   0  0  0  0  0  0  0  0  0  0  0  0
   -1.4640   -3.4980    0.2960 H   0  0  0  0  0  0  0  0  0  0  0  0
   -0.9220   -2.5900    2.5260 H   0  0  0  0  0  0  0  0  0  0  0  0
   -1.4780   -0.9760    2.0190 H   0  0  0  0  0  0  0  0  0  0  0  0
   -0.1070   -2.2570   -1.4330 H   0  0  0  0  0  0  0  0  0  0  0  0
   -0.6290   -0.6420   -1.9690 H   0  0  0  0  0  0  0  0  0  0  0  0
    3.9480    1.6340    2.9150 H   0  0  0  0  0  0  0  0  0  0  0  0
   -3.5340    1.9610    1.7420 H   0  0  0  0  0  0  0  0  0  0  0  0
    5.2590    1.6040    0.7290 H   0  0  0  0  0  0  0  0  0  0  0  0
  7 20  2  0  0  0  0
  7 14  1  0  0  0  0
  7 21  1  0  0  0  0
 14 15  1  0  0  0  0
  8 21  1  0  0  0  0
  8 15  2  0  0  0  0
  8  9  1  0  0  0  0
 10 11  1  0  0  0  0
  1 11  1  0  0  0  0
  9 10  1  0  0  0  0
  9 12  1  0  0  0  0
  1 16  1  0  0  0  0
 12 16  1  0  0  0  0
  2 16  1  0  0  0  0
  2  6  2  0  0  0  0
  2 17  1  0  0  0  0
  5  6  1  0  0  0  0
  5 13  2  0  0  0  0
  4  6  1  0  0  0  0
  3 17  2  0  0  0  0
 13 19  1  0  0  0  0
  4 19  1  0  0  0  0
  4 18  2  0  0  0  0
  3 18  1  0  0  0  0
  1 22  1  0  0  0  0
  1 23  1  0  0  0  0
  3 24  1  0  0  0  0
  5 25  1  0  0  0  0
  9 26  1  0  0  0  0
 10 27  1  0  0  0  0
 10 28  1  0  0  0  0
 11 29  1  0  0  0  0
 11 30  1  0  0  0  0
 12 31  1  0  0  0  0
 12 32  1  0  0  0  0
 13 33  1  0  0  0  0
 14 34  1  0  0  0  0
 19 35  1  0  0  0  0
M  END
> <OPENEYE_ISO_SMILES>
c1c[nH]c2c1c(ncn2)[N@@]3CCC[C@H](C3)c4n[nH]c(=O)o4

> <OPENEYE_INCHI>
InChI=1S/C13H14N6O2/c20-13-18-17-12(21-13)8-2-1-5-19(6-8)11-9-3-4-14-10(9)15-7-16-11/h3-4,7-8H,1-2,5-6H2,(H,18,20)(H,14,15,16)/t8-/m1/s1

> <OPENEYE_INCHIKEY>
FSJZPCQWTVULBE-MRVPVSSYSA-N

> <FORMULA>
C13H14N6O2

$$$$
