@<TRIPOS>MOLECULE
/home/pku/3cl/gett_pdb/5RTP/5RTP_mol2/ligand/5RTP_AOT.pdb
 18 18 0 0 0
SMALL
GASTEIGER

@<TRIPOS>ATOM
      1  C1       -45.1350  -33.6620   -0.4890 C.ar  201  AOT201      0.0337
      2  N1       -44.2830  -32.6300    0.0400 N.am  201  AOT201     -0.2799
      3  O1       -44.2550  -33.4250    2.1370 O.2   201  AOT201     -0.2677
      4  C2       -46.3330  -33.9960    0.1310 C.ar  201  AOT201     -0.0405
      5  O2       -42.5990  -30.6030    0.9530 O.co2 201  AOT201     -0.8410
      6  O3       -42.7070  -31.1490    3.0220 O.co2 201  AOT201     -0.2987
      7  C8       -43.0140  -31.3850    1.8380 C.2   201  AOT201      0.1748
      8  C7       -43.9020  -32.5700    1.4160 C.2   201  AOT201      0.2735
      9  C4       -47.1810  -34.9420   -0.4080 C.ar  201  AOT201     -0.0600
     10  C6       -46.8540  -35.5750   -1.5920 C.ar  201  AOT201     -0.0616
     11  C5       -45.6760  -35.2580   -2.1990 C.ar  201  AOT201     -0.0600
     12  C3       -44.8280  -34.2940   -1.6680 C.ar  201  AOT201     -0.0405
     13  H1       -44.0300  -31.9970   -0.4850 H     201  AOT201      0.1552
     14  H2       -46.5750  -33.5630    0.9180 H     201  AOT201      0.0636
     15  H4       -47.9720  -35.1580    0.0300 H     201  AOT201      0.0618
     16  H5       -47.4030  -36.2320   -1.9500 H     201  AOT201      0.0618
     17  H6       -45.4440  -35.6810   -2.9940 H     201  AOT201      0.0618
     18  H7       -44.0380  -34.0820   -2.1110 H     201  AOT201      0.0636
@<TRIPOS>UNITY_ATOM_ATTR
5 1
charge -1
@<TRIPOS>BOND
     1    17    11    1
     2    11    12   ar
     3    11    10   ar
     4    18    12    1
     5    16    10    1
     6    12     1   ar
     7    10     9   ar
     8     1     2    1
     9     1     4   ar
    10    13     2    1
    11     9    15    1
    12     9     4   ar
    13     2     8   am
    14     4    14    1
    15     5     7   ar
    16     8     7    1
    17     8     3    2
    18     7     6   ar
