@<TRIPOS>MOLECULE
/home/pku/3cl/gett_pdb/7T41/7T41_mol2/ligand/7T41_FWI.pdb
 34 35 0 0 0
SMALL
GASTEIGER

@<TRIPOS>ATOM
      1  C01      -20.7010   28.7060    5.6070 C.3   401  FWI401      0.2036
      2  C03      -21.0730   27.2200    5.4710 C.3   401  FWI401      0.1290
      3  C04      -20.5320   26.3760    6.6360 C.3   401  FWI401      0.0379
      4  C05      -20.9240   24.8900    6.5410 C.3   401  FWI401      0.1036
      5  C06      -20.2430   24.0280    7.6810 C.2   401  FWI401      0.2493
      6  C08      -22.5040   23.6180    7.9170 C.2   401  FWI401      0.0845
      7  C09      -22.1770   24.7220    6.6740 C.2   401  FWI401      0.0007
      8  C12      -21.4280   26.1830    3.2090 C.2   401  FWI401      0.2614
      9  C13      -20.8450   25.6000    1.9050 C.3   401  FWI401      0.1761
     10  C14      -21.0170   26.5680    0.7260 C.3   401  FWI401      0.0312
     11  C15      -20.3910   26.0600   -0.5910 C.3   401  FWI401      0.0022
     12  C16      -18.8640   26.0150   -0.5220 C.3   401  FWI401      0.0001
     13  C17      -20.8210   26.8960   -1.8020 C.3   401  FWI401      0.0001
     14  C19      -21.3870   23.3740    2.7860 C.2   401  FWI401      0.4215
     15  C21      -22.7290   21.5790    2.1140 C.3   401  FWI401      0.2135
     16  C22      -22.1660   20.2590    2.6240 C.3   401  FWI401      0.0837
     17  C23      -21.6640   19.4100    1.5160 C.3   401  FWI401      0.1021
     18  C25      -22.8780   16.9900    1.4200 C.2   401  FWI401      0.4046
     19  C27      -23.3330   16.4430   -0.8970 C.3   401  FWI401      0.1378
     20  C28      -24.7260   16.0340   -0.4200 C.3   401  FWI401      0.0437
     21  C29      -23.4260   17.7290   -1.7150 C.3   401  FWI401      0.0437
     22  C30      -22.7990   15.3200   -1.7750 C.3   401  FWI401      0.0437
     23  C32      -23.2040   19.2400    2.9440 C.3   401  FWI401      0.1021
     24  N07      -21.3970   23.2770    8.4620 N.am  401  FWI401     -0.1780
     25  N11      -20.5390   26.6780    4.2380 N.am  401  FWI401     -0.2030
     26  N18      -21.4930   24.3230    1.6770 N.am  401  FWI401     -0.1611
     27  N24      -22.6350   18.3420    1.8940 N.am  401  FWI401     -0.2457
     28  O02      -21.4730   29.4850    4.7260 O.3   401  FWI401     -0.2185
     29  O10      -19.0900   23.9410    7.9140 O.2   401  FWI401     -0.2726
     30  O20      -22.4720   22.5440    3.0740 O.3   401  FWI401     -0.4334
     31  O26      -22.4210   16.6350    0.1400 O.3   401  FWI401     -0.4418
     32  O31      -23.4050   16.1970    2.1290 O.2   401  FWI401     -0.2262
     33  O33      -20.4070   23.3000    3.4700 O.2   401  FWI401     -0.2246
     34  O34      -22.5940   26.2370    3.4050 O.2   401  FWI401     -0.2715
@<TRIPOS>BOND
     1    13    11    1
     2    22    19    1
     3    21    19    1
     4    19    20    1
     5    19    31    1
     6    11    12    1
     7    11    10    1
     8    31    18    1
     9    10     9    1
    10    18    27   am
    11    18    32    2
    12    17    27    1
    13    17    16    1
    14    26     9    1
    15    26    14   am
    16    27    23    1
    17     9     8    1
    18    15    16    1
    19    15    30    1
    20    16    23    1
    21    14    30    1
    22    14    33    2
    23     8    34    2
    24     8    25   am
    25    25     2    1
    26    28     1    1
    27     2     1    1
    28     2     3    1
    29     4     3    1
    30     4     7    1
    31     4     5    1
    32     7     6    2
    33     5    29    2
    34     5    24   am
    35     6    24    1
