W3D
  -OEChem-02242320043D

 18 18  0     0  0  0  0  0  0999 V2000
    0.5960    1.2170   -0.5750 C   0  0  0  0  0  0  0  0  0  0  0  0
    1.2660    0.0610   -0.1460 C   0  0  0  0  0  0  0  0  0  0  0  0
    0.5610   -1.0970    0.0180 C   0  0  0  0  0  0  0  0  0  0  0  0
    3.1250    0.1070    0.1990 Br  0  0  0  0  0  0  0  0  0  0  0  0
   -0.8180   -1.1050   -0.2460 C   0  0  0  0  0  0  0  0  0  0  0  0
   -1.4600   -2.1330   -0.1030 O   0  0  0  0  0  0  0  0  0  0  0  0
   -0.7340    1.1740   -0.8200 C   0  0  0  0  0  0  0  0  0  0  0  0
   -1.4330    0.0210   -0.6560 N   0  0  0  0  0  0  0  0  0  0  0  0
   -2.8720    0.0020   -0.9280 C   0  0  0  0  0  0  0  0  0  0  0  0
   -3.6260    0.3450    0.3300 C   0  0  0  0  0  0  0  0  0  0  0  0
   -4.9680    0.3880    0.3180 O   0  0  0  0  0  0  0  0  0  0  0  0
   -3.0230    0.5820    1.3500 O   0  0  0  0  0  0  0  0  0  0  0  0
    1.1400    2.1410   -0.7050 H   0  0  0  0  0  0  0  0  0  0  0  0
    1.0590   -1.9970    0.3470 H   0  0  0  0  0  0  0  0  0  0  0  0
   -1.2470    2.0670   -1.1450 H   0  0  0  0  0  0  0  0  0  0  0  0
   -3.1050    0.7320   -1.7030 H   0  0  0  0  0  0  0  0  0  0  0  0
   -3.1640   -0.9920   -1.2670 H   0  0  0  0  0  0  0  0  0  0  0  0
   -5.4070    0.6130    1.1500 H   0  0  0  0  0  0  0  0  0  0  0  0
  2  4  1  0  0  0  0
  2  3  2  0  0  0  0
  3  5  1  0  0  0  0
  5  6  2  0  0  0  0
  1  2  1  0  0  0  0
  5  8  1  0  0  0  0
  1  7  2  0  0  0  0
  7  8  1  0  0  0  0
  8  9  1  0  0  0  0
  9 10  1  0  0  0  0
 10 12  2  0  0  0  0
 10 11  1  0  0  0  0
  1 13  1  0  0  0  0
  3 14  1  0  0  0  0
  7 15  1  0  0  0  0
  9 16  1  0  0  0  0
  9 17  1  0  0  0  0
 11 18  1  0  0  0  0
M  END
> <OPENEYE_ISO_SMILES>
c1cn(c(=O)cc1Br)CC(=O)O

> <OPENEYE_INCHI>
InChI=1S/C7H6BrNO3/c8-5-1-2-9(4-7(11)12)6(10)3-5/h1-3H,4H2,(H,11,12)

> <OPENEYE_INCHIKEY>
INCAMIFWGMKSNK-UHFFFAOYSA-N

> <FORMULA>
C7H6BrNO3

$$$$
