DOZ
  -OEChem-02242320023D

 12 11  0     0  0  0  0  0  0999 V2000
   -0.5420    0.0120   -0.0680 Zn  0  0  0  0  0  0  0  0  0  0  0  0
    1.2220   -0.0090   -0.3680 N   0  0  0  0  0  0  0  0  0  0  0  0
   -2.2180    0.0320    0.2170 O   0  0  0  0  0  0  0  0  0  0  0  0
    1.8630    1.1960    0.1770 C   0  0  0  0  0  0  0  0  0  0  0  0
    1.8350   -1.2250    0.1820 C   0  0  0  0  0  0  0  0  0  0  0  0
   -2.6840   -0.7430   -0.1240 H   0  0  0  0  0  0  0  0  0  0  0  0
    1.6920    1.2440    1.2520 H   0  0  0  0  0  0  0  0  0  0  0  0
    2.9340    1.1580   -0.0190 H   0  0  0  0  0  0  0  0  0  0  0  0
    1.4380    2.0800   -0.2990 H   0  0  0  0  0  0  0  0  0  0  0  0
    1.3900   -2.1010   -0.2890 H   0  0  0  0  0  0  0  0  0  0  0  0
    2.9080   -1.2120   -0.0140 H   0  0  0  0  0  0  0  0  0  0  0  0
    1.6630   -1.2650    1.2580 H   0  0  0  0  0  0  0  0  0  0  0  0
  1  2  1  0  0  0  0
  1  3  1  0  0  0  0
  2  4  1  0  0  0  0
  2  5  1  0  0  0  0
  3  6  1  0  0  0  0
  4  7  1  0  0  0  0
  4  8  1  0  0  0  0
  4  9  1  0  0  0  0
  5 10  1  0  0  0  0
  5 11  1  0  0  0  0
  5 12  1  0  0  0  0
M  END
> <OPENEYE_ISO_SMILES>
CN(C)[Zn]O

> <OPENEYE_INCHI>
InChI=1S/C2H6N.H2O.Zn/c1-3-2;;/h1-2H3;1H2;/q-1;;+2/p-1

> <OPENEYE_INCHIKEY>
CDZLGJBBWRJQTP-UHFFFAOYSA-M

> <FORMULA>
C2H7NOZn

$$$$
