S50
  -OEChem-02242320043D

 43 46  0     0  0  0  0  0  0999 V2000
    1.7070   -0.8910   -0.3980 C   0  0  0  0  0  0  0  0  0  0  0  0
    1.6300    0.4240   -0.8510 C   0  0  0  0  0  0  0  0  0  0  0  0
   -3.4140    0.0830   -1.9590 C   0  0  0  0  0  0  0  0  0  0  0  0
   -4.8850   -0.2580   -2.2520 C   0  0  0  0  0  0  0  0  0  0  0  0
    3.9230    0.6800   -0.7690 C   0  0  0  0  0  0  0  0  0  0  0  0
   -1.2250    3.9350    1.2170 C   0  0  0  0  0  0  0  0  0  0  0  0
   -1.4310    2.4740    0.9100 C   0  0  0  0  0  0  0  0  0  0  0  0
   -0.5970    1.4260    1.3110 C   0  0  0  0  0  0  0  0  0  0  0  0
   -1.1220    0.2710    0.8400 C   0  0  0  0  0  0  0  0  0  0  0  0
   -3.1350   -0.3730   -0.5120 C   0  0  0  0  0  0  0  0  0  0  0  0
   -4.5320   -0.3830    0.1580 C   0  0  0  0  0  0  0  0  0  0  0  0
   -5.4500   -0.9090   -0.9730 C   0  0  0  0  0  0  0  0  0  0  0  0
    6.1220    0.2960   -0.4970 C   0  0  0  0  0  0  0  0  0  0  0  0
    5.5180   -0.8470   -0.1370 C   0  0  0  0  0  0  0  0  0  0  0  0
    4.0790   -0.6430   -0.3140 C   0  0  0  0  0  0  0  0  0  0  0  0
    2.9500   -1.4410   -0.1200 C   0  0  0  0  0  0  0  0  0  0  0  0
   -2.2490    0.5790    0.1630 N   0  0  0  0  0  0  0  0  0  0  0  0
   -2.4250    1.9670    0.2260 N   0  0  0  0  0  0  0  0  0  0  0  0
    0.5420   -1.6470   -0.2210 N   0  0  0  0  0  0  0  0  0  0  0  0
    2.7100    1.1560   -1.0200 N   0  0  0  0  0  0  0  0  0  0  0  0
    5.1840    1.2220   -0.8690 N   0  0  0  0  0  0  0  0  0  0  0  0
    0.3810   -1.2740    2.2140 O   0  0  0  0  0  0  0  0  0  0  0  0
   -1.5450   -2.2480    0.9530 O   0  0  0  0  0  0  0  0  0  0  0  0
   -0.4550   -1.3430    1.0670 S   0  0  0  0  0  0  0  0  0  0  0  0
    0.6630    0.8520   -1.0680 H   0  0  0  0  0  0  0  0  0  0  0  0
   -2.7620   -0.4500   -2.6510 H   0  0  0  0  0  0  0  0  0  0  0  0
   -3.2550    1.1580   -2.0500 H   0  0  0  0  0  0  0  0  0  0  0  0
   -5.4400    0.6510   -2.4840 H   0  0  0  0  0  0  0  0  0  0  0  0
   -4.9480   -0.9560   -3.0860 H   0  0  0  0  0  0  0  0  0  0  0  0
   -1.7180    4.1810    2.1580 H   0  0  0  0  0  0  0  0  0  0  0  0
   -0.1580    4.1410    1.3010 H   0  0  0  0  0  0  0  0  0  0  0  0
   -1.6490    4.5390    0.4150 H   0  0  0  0  0  0  0  0  0  0  0  0
    0.3070    1.5210    1.8950 H   0  0  0  0  0  0  0  0  0  0  0  0
   -2.7010   -1.3720   -0.5040 H   0  0  0  0  0  0  0  0  0  0  0  0
   -4.5450   -1.0590    1.0130 H   0  0  0  0  0  0  0  0  0  0  0  0
   -4.8240    0.6240    0.4570 H   0  0  0  0  0  0  0  0  0  0  0  0
   -6.4800   -0.5930   -0.8060 H   0  0  0  0  0  0  0  0  0  0  0  0
   -5.3890   -1.9950   -1.0390 H   0  0  0  0  0  0  0  0  0  0  0  0
    7.1880    0.4670   -0.4790 H   0  0  0  0  0  0  0  0  0  0  0  0
    6.0010   -1.7470    0.2150 H   0  0  0  0  0  0  0  0  0  0  0  0
    3.0420   -2.4570    0.2370 H   0  0  0  0  0  0  0  0  0  0  0  0
    0.3180   -2.3490   -0.8520 H   0  0  0  0  0  0  0  0  0  0  0  0
    5.3810    2.1240   -1.1680 H   0  0  0  0  0  0  0  0  0  0  0  0
 13 21  1  0  0  0  0
  5 21  1  0  0  0  0
 13 14  2  0  0  0  0
  5 20  2  0  0  0  0
  2 20  1  0  0  0  0
  5 15  1  0  0  0  0
 14 15  1  0  0  0  0
  1  2  2  0  0  0  0
 15 16  2  0  0  0  0
  6  7  1  0  0  0  0
  1 16  1  0  0  0  0
  1 19  1  0  0  0  0
  7  8  1  0  0  0  0
  8  9  2  0  0  0  0
  7 18  2  0  0  0  0
 19 24  1  0  0  0  0
  9 24  1  0  0  0  0
  9 17  1  0  0  0  0
 17 18  1  0  0  0  0
 22 24  2  0  0  0  0
 23 24  2  0  0  0  0
 10 17  1  0  0  0  0
 10 11  1  0  0  0  0
  3 10  1  0  0  0  0
 11 12  1  0  0  0  0
  3  4  1  0  0  0  0
  4 12  1  0  0  0  0
  2 25  1  0  0  0  0
  3 26  1  0  0  0  0
  3 27  1  0  0  0  0
  4 28  1  0  0  0  0
  4 29  1  0  0  0  0
  6 30  1  0  0  0  0
  6 31  1  0  0  0  0
  6 32  1  0  0  0  0
  8 33  1  0  0  0  0
 10 34  1  0  0  0  0
 11 35  1  0  0  0  0
 11 36  1  0  0  0  0
 12 37  1  0  0  0  0
 12 38  1  0  0  0  0
 13 39  1  0  0  0  0
 14 40  1  0  0  0  0
 16 41  1  0  0  0  0
 19 42  1  0  0  0  0
 21 43  1  0  0  0  0
M  END
> <OPENEYE_ISO_SMILES>
Cc1cc(n(n1)C2CCCC2)S(=O)(=O)Nc3cc4cc[nH]c4nc3

> <OPENEYE_INCHI>
InChI=1S/C16H19N5O2S/c1-11-8-15(21(19-11)14-4-2-3-5-14)24(22,23)20-13-9-12-6-7-17-16(12)18-10-13/h6-10,14,20H,2-5H2,1H3,(H,17,18)

> <OPENEYE_INCHIKEY>
RJFXVLMCNRXHDX-UHFFFAOYSA-N

> <FORMULA>
C16H19N5O2S

$$$$
