U1G
  -OEChem-02242320043D

 30 31  0     0  0  0  0  0  0999 V2000
   -0.1510    0.7380    0.3900 N   0  0  0  0  0  0  0  0  0  0  0  0
    0.9570    1.7030    0.3910 C   0  0  0  0  0  0  0  0  0  0  0  0
    2.0250    1.2240   -0.5990 C   0  0  0  0  0  0  0  0  0  0  0  0
   -1.4120    1.1410    0.1380 C   0  0  0  0  0  0  0  0  0  0  0  0
   -2.4880    0.1520    0.0150 C   0  0  0  0  0  0  0  0  0  0  0  0
   -3.7800    0.4110   -0.3440 C   0  0  0  0  0  0  0  0  0  0  0  0
   -3.5590   -1.7630    0.0270 C   0  0  0  0  0  0  0  0  0  0  0  0
    2.3180   -0.1900   -0.3260 N   0  0  0  0  0  0  0  0  0  0  0  0
    4.6890    0.4200    0.0240 C   0  0  0  0  0  0  0  0  0  0  0  0
    3.8220   -1.7750    0.0600 O   0  0  0  0  0  0  0  0  0  0  0  0
    3.5790   -0.5950   -0.0790 C   0  0  0  0  0  0  0  0  0  0  0  0
    1.2100   -1.1560   -0.3270 C   0  0  0  0  0  0  0  0  0  0  0  0
    0.1410   -0.6760    0.6630 C   0  0  0  0  0  0  0  0  0  0  0  0
   -4.4560   -0.8180   -0.3330 C   0  0  0  0  0  0  0  0  0  0  0  0
   -1.6580    2.3260    0.0130 O   0  0  0  0  0  0  0  0  0  0  0  0
   -2.3730   -1.1750    0.2300 O   0  0  0  0  0  0  0  0  0  0  0  0
    0.5890    2.6830    0.0860 H   0  0  0  0  0  0  0  0  0  0  0  0
    1.3860    1.7660    1.3910 H   0  0  0  0  0  0  0  0  0  0  0  0
    1.6540    1.3300   -1.6180 H   0  0  0  0  0  0  0  0  0  0  0  0
    2.9320    1.8160   -0.4740 H   0  0  0  0  0  0  0  0  0  0  0  0
   -4.1990    1.3760   -0.5890 H   0  0  0  0  0  0  0  0  0  0  0  0
   -3.7640   -2.8180    0.1300 H   0  0  0  0  0  0  0  0  0  0  0  0
    4.7220    0.8210    1.0370 H   0  0  0  0  0  0  0  0  0  0  0  0
    5.6410   -0.0580   -0.2090 H   0  0  0  0  0  0  0  0  0  0  0  0
    4.5070    1.2310   -0.6820 H   0  0  0  0  0  0  0  0  0  0  0  0
    0.7800   -1.2190   -1.3270 H   0  0  0  0  0  0  0  0  0  0  0  0
    1.5780   -2.1360   -0.0250 H   0  0  0  0  0  0  0  0  0  0  0  0
    0.5130   -0.7830    1.6820 H   0  0  0  0  0  0  0  0  0  0  0  0
   -0.7660   -1.2680    0.5380 H   0  0  0  0  0  0  0  0  0  0  0  0
   -5.4990   -0.9790   -0.5650 H   0  0  0  0  0  0  0  0  0  0  0  0
  9 11  1  0  0  0  0
 10 11  2  0  0  0  0
  8 11  1  0  0  0  0
  8 12  1  0  0  0  0
 12 13  1  0  0  0  0
  1 13  1  0  0  0  0
  1  2  1  0  0  0  0
  2  3  1  0  0  0  0
  3  8  1  0  0  0  0
  1  4  1  0  0  0  0
  4 15  2  0  0  0  0
  4  5  1  0  0  0  0
  5  6  2  0  0  0  0
  6 14  1  0  0  0  0
  7 14  2  0  0  0  0
  7 16  1  0  0  0  0
  5 16  1  0  0  0  0
  2 17  1  0  0  0  0
  2 18  1  0  0  0  0
  3 19  1  0  0  0  0
  3 20  1  0  0  0  0
  6 21  1  0  0  0  0
  7 22  1  0  0  0  0
  9 23  1  0  0  0  0
  9 24  1  0  0  0  0
  9 25  1  0  0  0  0
 12 26  1  0  0  0  0
 12 27  1  0  0  0  0
 13 28  1  0  0  0  0
 13 29  1  0  0  0  0
 14 30  1  0  0  0  0
M  END
> <OPENEYE_ISO_SMILES>
CC(=O)N1CCN(CC1)C(=O)c2ccco2

> <OPENEYE_INCHI>
InChI=1S/C11H14N2O3/c1-9(14)12-4-6-13(7-5-12)11(15)10-3-2-8-16-10/h2-3,8H,4-7H2,1H3

> <OPENEYE_INCHIKEY>
IVYZJWUTDZYPEB-UHFFFAOYSA-N

> <FORMULA>
C11H14N2O3

$$$$
