CAC
  -OEChem-02242320023D

 11 10  0     0  0  0  0  0  0999 V2000
    0.0000    0.0310    0.0000 As  0  0  0  0  0  0  0  0  0  0  0  0
    0.0000    1.0190   -1.3980 O   0  0  0  0  0  0  0  0  0  0  0  0
    0.0000    1.0190    1.3980 O   0  5  0  0  0  0  0  0  0  0  0  0
   -1.6250   -1.1180    0.0000 C   0  0  0  0  0  0  0  0  0  0  0  0
    1.6250   -1.1180   -0.0000 C   0  0  0  0  0  0  0  0  0  0  0  0
   -1.6250   -1.7480   -0.8900 H   0  0  0  0  0  0  0  0  0  0  0  0
   -1.6250   -1.7480    0.8900 H   0  0  0  0  0  0  0  0  0  0  0  0
   -2.5150   -0.4890    0.0000 H   0  0  0  0  0  0  0  0  0  0  0  0
    2.5150   -0.4890   -0.0000 H   0  0  0  0  0  0  0  0  0  0  0  0
    1.6250   -1.7480    0.8900 H   0  0  0  0  0  0  0  0  0  0  0  0
    1.6250   -1.7480   -0.8900 H   0  0  0  0  0  0  0  0  0  0  0  0
  1  2  2  0  0  0  0
  1  3  1  0  0  0  0
  1  4  1  0  0  0  0
  1  5  1  0  0  0  0
  4  6  1  0  0  0  0
  4  7  1  0  0  0  0
  4  8  1  0  0  0  0
  5  9  1  0  0  0  0
  5 10  1  0  0  0  0
  5 11  1  0  0  0  0
M  CHG  1   3  -1
M  END
> <OPENEYE_ISO_SMILES>
C[As](=O)(C)[O-]

> <OPENEYE_INCHI>
InChI=1S/C2H7AsO2/c1-3(2,4)5/h1-2H3,(H,4,5)/p-1

> <OPENEYE_INCHIKEY>
OGGXGZAMXPVRFZ-UHFFFAOYSA-M

> <FORMULA>
C2H6AsO2-

$$$$
