@<TRIPOS>MOLECULE
/home/pku/3cl/gett_pdb/5RVV/5RVV_mol2/ligand/5RVV_WB1.pdb
 21 22 0 0 0
SMALL
GASTEIGER

@<TRIPOS>ATOM
      1  C10        9.8010    5.6320   17.9320 C.ar  201  WB1201     -0.0349
      2  C01        9.7680    7.5930   19.5420 C.3   201  WB1201     -0.0396
      3  C02       10.1030    6.1430   19.1850 C.ar  201  WB1201     -0.0485
      4  C03       10.7170    5.3390   20.1300 C.ar  201  WB1201     -0.0581
      5  C04       11.0280    4.0370   19.8180 C.ar  201  WB1201     -0.0517
      6  C05       10.7220    3.5170   18.5490 C.ar  201  WB1201      0.0093
      7  C06       10.8940    2.2710   17.9240 C.ar  201  WB1201      0.0322
      8  C07       10.3730    2.4080   16.6520 C.ar  201  WB1201      0.0124
      9  C09       10.1060    4.3230   17.6260 C.ar  201  WB1201      0.0474
     10  C11       11.5050    1.0040   18.4930 C.2   201  WB1201      0.1206
     11  N08        9.9210    3.6310   16.5050 N.ar  201  WB1201     -0.3600
     12  O12       11.9070    0.9560   19.6730 O.co2 201  WB1201     -0.3035
     13  O13       11.5950    0.0030   17.7620 O.co2 201  WB1201     -0.8440
     14 H101        9.3900    6.1730   17.2970 H     201  WB1201      0.0641
     15 H011        9.4280    8.0490   18.7560 H     201  WB1201      0.0278
     16 H013       10.5690    8.0420   19.8550 H     201  WB1201      0.0278
     17 H012        9.0950    7.6070   20.2400 H     201  WB1201      0.0278
     18 H031       10.9210    5.6790   20.9710 H     201  WB1201      0.0620
     19 H041       11.4360    3.4950   20.4540 H     201  WB1201      0.0624
     20 H071       10.3450    1.7410   16.0050 H     201  WB1201      0.0814
     21 H081        9.5530    3.9380   15.7910 H     201  WB1201      0.1654
@<TRIPOS>UNITY_ATOM_ATTR
13 1
charge -1
@<TRIPOS>BOND
     1    21    11    1
     2    20     8    1
     3    11     8   ar
     4    11     9   ar
     5     8     7   ar
     6    14     1    1
     7     9     1   ar
     8     9     6   ar
     9    13    10   ar
    10     7    10    1
    11     7     6   ar
    12     1     3   ar
    13    10    12   ar
    14     6     5   ar
    15    15     2    1
    16     3     2    1
    17     3     4   ar
    18     2    16    1
    19     2    17    1
    20     5     4   ar
    21     5    19    1
    22     4    18    1
