P8C
  -OEChem-02242320033D

 78 80  0     1  0  0  0  0  0999 V2000
   -1.0360   -1.4190    0.3820 C   0  0  0  0  0  0  0  0  0  0  0  0
    1.3700   -1.0840    0.5820 C   0  0  1  0  0  0  0  0  0  0  0  0
    1.9140   -2.5010    0.7790 C   0  0  0  0  0  0  0  0  0  0  0  0
    3.1360   -2.4540    1.6990 C   0  0  0  0  0  0  0  0  0  0  0  0
    2.7030   -2.0200    3.1010 C   0  0  0  0  0  0  0  0  0  0  0  0
    3.7740   -3.8430    1.7690 C   0  0  0  0  0  0  0  0  0  0  0  0
    2.3960   -0.2480   -0.1370 C   0  0  0  0  0  0  0  0  0  0  0  0
    4.3580    1.1980   -0.1260 C   0  0  1  0  0  0  0  0  0  0  0  0
    5.0410    0.4680   -1.2830 C   0  0  0  0  0  0  0  0  0  0  0  0
    5.8780   -0.6890   -0.7330 C   0  0  1  0  0  0  0  0  0  0  0  0
    6.5840   -1.4130   -1.8570 C   0  0  0  0  0  0  0  0  0  0  0  0
    8.1690   -1.1370   -0.1820 C   0  0  0  0  0  0  0  0  0  0  0  0
    7.0270   -0.1520    0.1530 C   0  0  0  0  0  0  0  0  0  0  0  0
    3.5870    2.4040   -0.6680 C   0  0  2  0  0  0  0  0  0  0  0  0
   -3.4080   -1.6740    0.3800 C   0  0  0  0  0  0  0  0  0  0  0  0
   -4.5920   -1.5630   -0.5830 C   0  0  2  0  0  0  0  0  0  0  0  0
   -5.9960   -1.7360    0.0000 C   0  0  1  0  0  0  0  0  0  0  0  0
   -7.1210   -0.8940   -0.6050 C   0  0  0  0  0  0  0  0  0  0  0  0
   -6.7930    0.5910   -0.4380 C   0  0  0  0  0  0  0  0  0  0  0  0
   -7.9180    1.4330   -1.0430 C   0  0  0  0  0  0  0  0  0  0  0  0
   -9.2330    1.1170   -0.3280 C   0  0  0  0  0  0  0  0  0  0  0  0
   -9.5610   -0.3680   -0.4950 C   0  0  0  0  0  0  0  0  0  0  0  0
   -8.4360   -1.2100    0.1100 C   0  0  0  0  0  0  0  0  0  0  0  0
   -5.3900   -2.8370   -0.8720 C   0  0  0  0  0  0  0  0  0  0  0  0
   -9.1080    1.4160    1.0330 F   0  0  0  0  0  0  0  0  0  0  0  0
  -10.2620    1.8870   -0.8820 F   0  0  0  0  0  0  0  0  0  0  0  0
    0.1410   -1.1400   -0.2140 N   0  0  0  0  0  0  0  0  0  0  0  0
    3.4280    0.2870    0.5460 N   0  0  0  0  0  0  0  0  0  0  0  0
    7.8660   -1.6460   -1.5250 N   0  0  0  0  0  0  0  0  0  0  0  0
   -1.0650   -1.7140    1.5600 O   0  0  0  0  0  0  0  0  0  0  0  0
    6.0690   -1.7380   -2.9060 O   0  0  0  0  0  0  0  0  0  0  0  0
    4.4940    3.2920   -1.3250 O   0  0  0  0  0  0  0  0  0  0  0  0
    2.2940   -0.0550   -1.3300 O   0  0  0  0  0  0  0  0  0  0  0  0
   -2.1780   -1.3670   -0.3280 O   0  0  0  0  0  0  0  0  0  0  0  0
    2.7790    3.2720    0.7050 S   0  3  0  0  0  0  0  0  0  0  0  0
    1.1540   -0.6400    1.5540 H   0  0  0  0  0  0  0  0  0  0  0  0
    1.1430   -3.1260    1.2300 H   0  0  0  0  0  0  0  0  0  0  0  0
    2.2010   -2.9170   -0.1860 H   0  0  0  0  0  0  0  0  0  0  0  0
    3.8600   -1.7410    1.3050 H   0  0  0  0  0  0  0  0  0  0  0  0
    2.0290   -2.7680    3.5210 H   0  0  0  0  0  0  0  0  0  0  0  0
    3.5810   -1.9240    3.7390 H   0  0  0  0  0  0  0  0  0  0  0  0
    2.1890   -1.0610    3.0420 H   0  0  0  0  0  0  0  0  0  0  0  0
    3.0500   -4.5560    2.1630 H   0  0  0  0  0  0  0  0  0  0  0  0
    4.0820   -4.1520    0.7710 H   0  0  0  0  0  0  0  0  0  0  0  0
    4.6440   -3.8100    2.4240 H   0  0  0  0  0  0  0  0  0  0  0  0
    5.1110    1.5380    0.5850 H   0  0  0  0  0  0  0  0  0  0  0  0
    4.2850    0.0770   -1.9630 H   0  0  0  0  0  0  0  0  0  0  0  0
    5.6880    1.1620   -1.8190 H   0  0  0  0  0  0  0  0  0  0  0  0
    5.2510   -1.3780   -0.1670 H   0  0  0  0  0  0  0  0  0  0  0  0
    9.1270   -0.6170   -0.1840 H   0  0  0  0  0  0  0  0  0  0  0  0
    8.1860   -1.9550    0.5370 H   0  0  0  0  0  0  0  0  0  0  0  0
    7.2940    0.8660   -0.1300 H   0  0  0  0  0  0  0  0  0  0  0  0
    6.7630   -0.2060    1.2090 H   0  0  0  0  0  0  0  0  0  0  0  0
    2.8330    2.0640   -1.3770 H   0  0  0  0  0  0  0  0  0  0  0  0
   -3.5410   -0.9700    1.2010 H   0  0  0  0  0  0  0  0  0  0  0  0
   -3.3560   -2.6880    0.7760 H   0  0  0  0  0  0  0  0  0  0  0  0
   -4.4700   -0.8500   -1.3980 H   0  0  0  0  0  0  0  0  0  0  0  0
   -6.0760   -1.9280    1.0700 H   0  0  0  0  0  0  0  0  0  0  0  0
   -7.2190   -1.1270   -1.6660 H   0  0  0  0  0  0  0  0  0  0  0  0
   -6.6950    0.8240    0.6220 H   0  0  0  0  0  0  0  0  0  0  0  0
   -5.8570    0.8160   -0.9480 H   0  0  0  0  0  0  0  0  0  0  0  0
   -7.6850    2.4910   -0.9240 H   0  0  0  0  0  0  0  0  0  0  0  0
   -8.0170    1.2000   -2.1040 H   0  0  0  0  0  0  0  0  0  0  0  0
  -10.4980   -0.5930    0.0140 H   0  0  0  0  0  0  0  0  0  0  0  0
   -9.6590   -0.6010   -1.5560 H   0  0  0  0  0  0  0  0  0  0  0  0
   -8.6700   -2.2680   -0.0090 H   0  0  0  0  0  0  0  0  0  0  0  0
   -8.3380   -0.9770    1.1700 H   0  0  0  0  0  0  0  0  0  0  0  0
   -5.7920   -2.9610   -1.8780 H   0  0  0  0  0  0  0  0  0  0  0  0
   -5.0710   -3.7530   -0.3760 H   0  0  0  0  0  0  0  0  0  0  0  0
    0.1740   -0.9750   -1.1690 H   0  0  0  0  0  0  0  0  0  0  0  0
    3.5550    0.0680    1.4830 H   0  0  0  0  0  0  0  0  0  0  0  0
    8.5080   -2.0940   -2.0980 H   0  0  0  0  0  0  0  0  0  0  0  0
    4.9630    2.8940   -2.0710 H   0  0  0  0  0  0  0  0  0  0  0  0
    2.1370    4.4870    0.3420 O   0  0  0  0  0  0  0  0  0  0  0  0
    1.7380    2.3430    1.3120 O   0  0  0  0  0  0  0  0  0  0  0  0
    3.8310    3.5830    1.7600 O   0  0  0  0  0  0  0  0  0  0  0  0
    1.2540    2.7270    2.0560 H   0  0  0  0  0  0  0  0  0  0  0  0
    4.3260    2.8100    2.0620 H   0  0  0  0  0  0  0  0  0  0  0  0
  4  6  1  0  0  0  0
 21 26  1  0  0  0  0
 21 25  1  0  0  0  0
 21 22  1  0  0  0  0
 22 23  1  0  0  0  0
 20 21  1  0  0  0  0
  4  5  1  0  0  0  0
  3  4  1  0  0  0  0
 18 23  1  0  0  0  0
 19 20  1  0  0  0  0
  2  3  1  0  0  0  0
 18 19  1  0  0  0  0
 17 18  1  0  0  0  0
  2 27  1  0  0  0  0
  1 27  1  0  0  0  0
  2  7  1  0  0  0  0
  1 34  1  0  0  0  0
 15 34  1  0  0  0  0
  1 30  2  0  0  0  0
 16 17  1  0  0  0  0
 17 24  1  0  0  0  0
 15 16  1  0  0  0  0
 16 24  1  0  0  0  0
  7 33  2  0  0  0  0
  7 28  1  0  0  0  0
  8 28  1  0  0  0  0
 14 32  1  0  0  0  0
 14 35  1  0  0  0  0
  8 14  1  0  0  0  0
  8  9  1  0  0  0  0
  9 10  1  0  0  0  0
 10 13  1  0  0  0  0
 10 11  1  0  0  0  0
 12 13  1  0  0  0  0
 11 31  2  0  0  0  0
 11 29  1  0  0  0  0
 12 29  1  0  0  0  0
  2 36  1  0  0  0  0
  3 37  1  0  0  0  0
  3 38  1  0  0  0  0
  4 39  1  0  0  0  0
  5 40  1  0  0  0  0
  5 41  1  0  0  0  0
  5 42  1  0  0  0  0
  6 43  1  0  0  0  0
  6 44  1  0  0  0  0
  6 45  1  0  0  0  0
  8 46  1  0  0  0  0
  9 47  1  0  0  0  0
  9 48  1  0  0  0  0
 10 49  1  0  0  0  0
 12 50  1  0  0  0  0
 12 51  1  0  0  0  0
 13 52  1  0  0  0  0
 13 53  1  0  0  0  0
 14 54  1  0  0  0  0
 15 55  1  0  0  0  0
 15 56  1  0  0  0  0
 16 57  1  0  0  0  0
 17 58  1  0  0  0  0
 18 59  1  0  0  0  0
 19 60  1  0  0  0  0
 19 61  1  0  0  0  0
 20 62  1  0  0  0  0
 20 63  1  0  0  0  0
 22 64  1  0  0  0  0
 22 65  1  0  0  0  0
 23 66  1  0  0  0  0
 23 67  1  0  0  0  0
 24 68  1  0  0  0  0
 24 69  1  0  0  0  0
 27 70  1  0  0  0  0
 28 71  1  0  0  0  0
 29 72  1  0  0  0  0
 32 73  1  0  0  0  0
 35 74  2  0  0  0  0
 35 75  1  0  0  0  0
 35 76  1  0  0  0  0
 75 77  1  0  0  0  0
 76 78  1  0  0  0  0
M  CHG  1  35   1
M  END
> <OPENEYE_ISO_SMILES>
CC(C)C[C@@H](C(=O)N[C@@H](C[C@@H]1CCNC1=O)[C@H](O)[S+](=O)(O)O)NC(=O)OC[C@H]2C[C@@H]2C3CCC(CC3)(F)F

> <OPENEYE_INCHI>
InChI=1S/C24H38F2N3O8S/c1-13(2)9-18(21(31)28-19(22(32)38(34,35)36)11-15-5-8-27-20(15)30)29-23(33)37-12-16-10-17(16)14-3-6-24(25,26)7-4-14/h13-19,22,32H,3-12H2,1-2H3,(H3-2,27,28,29,30,31,33,34,35,36)/q-1/p+2/t15-,16+,17+,18-,19-,22+/m0/s1

> <OPENEYE_INCHIKEY>
ACNPODIUBZVYHB-PGIRCJHISA-P

> <FORMULA>
C24H40F2N3O8S+

$$$$
