PJR
  -OEChem-02242320033D

 78 80  0     1  0  0  0  0  0999 V2000
   -1.4270   -1.6990    0.3930 C   0  0  0  0  0  0  0  0  0  0  0  0
    1.0030   -1.6530    0.5710 C   0  0  1  0  0  0  0  0  0  0  0  0
    1.3700   -3.1160    0.8290 C   0  0  0  0  0  0  0  0  0  0  0  0
    2.6380   -3.1800    1.6830 C   0  0  0  0  0  0  0  0  0  0  0  0
    2.3510   -2.5970    3.0680 C   0  0  0  0  0  0  0  0  0  0  0  0
    3.0840   -4.6370    1.8250 C   0  0  0  0  0  0  0  0  0  0  0  0
    2.1190   -0.9810   -0.1870 C   0  0  0  0  0  0  0  0  0  0  0  0
    4.2230    0.2460   -0.2450 C   0  0  1  0  0  0  0  0  0  0  0  0
    4.8380    1.2910    0.6880 C   0  0  0  0  0  0  0  0  0  0  0  0
    3.7610    2.2920    1.1120 C   0  0  1  0  0  0  0  0  0  0  0  0
    4.3510    3.3530    2.0160 C   0  0  0  0  0  0  0  0  0  0  0  0
    3.0110    4.4840    0.4930 C   0  0  0  0  0  0  0  0  0  0  0  0
    3.2430    3.0820   -0.1120 C   0  0  0  0  0  0  0  0  0  0  0  0
    5.3130   -0.7140   -0.7250 C   0  0  1  0  0  0  0  0  0  0  0  0
   -3.8130   -1.6610    0.4090 C   0  0  0  0  0  0  0  0  0  0  0  0
   -4.9820   -1.4460   -0.5540 C   0  0  2  0  0  0  0  0  0  0  0  0
   -6.3920   -1.4210    0.0410 C   0  0  1  0  0  0  0  0  0  0  0  0
   -7.4100   -0.4740   -0.5960 C   0  0  0  0  0  0  0  0  0  0  0  0
   -6.9020    0.9660   -0.4930 C   0  0  0  0  0  0  0  0  0  0  0  0
   -7.9210    1.9130   -1.1300 C   0  0  0  0  0  0  0  0  0  0  0  0
   -9.2590    1.7910   -0.3970 C   0  0  0  0  0  0  0  0  0  0  0  0
   -9.7670    0.3510   -0.5010 C   0  0  0  0  0  0  0  0  0  0  0  0
   -8.7480   -0.5960    0.1360 C   0  0  0  0  0  0  0  0  0  0  0  0
   -5.9320   -2.6230   -0.7860 C   0  0  0  0  0  0  0  0  0  0  0  0
   -9.0860    2.1280    0.9490 F   0  0  0  0  0  0  0  0  0  0  0  0
  -10.1900    2.6570   -0.9800 F   0  0  0  0  0  0  0  0  0  0  0  0
   -0.2300   -1.5910   -0.2180 N   0  0  0  0  0  0  0  0  0  0  0  0
    3.1920   -0.5060    0.4750 N   0  0  0  0  0  0  0  0  0  0  0  0
    3.9190    4.5700    1.6430 N   0  0  0  0  0  0  0  0  0  0  0  0
   -1.4820   -1.9390    1.5830 O   0  0  0  0  0  0  0  0  0  0  0  0
    5.1040    3.1360    2.9410 O   0  0  0  0  0  0  0  0  0  0  0  0
    4.7220   -1.7560   -1.5030 O   0  0  0  0  0  0  0  0  0  0  0  0
    2.0510   -0.8680   -1.3930 O   0  0  0  0  0  0  0  0  0  0  0  0
   -2.5600   -1.5370   -0.3150 O   0  0  0  0  0  0  0  0  0  0  0  0
    6.5130    0.1920   -1.7400 S   0  3  0  0  0  0  0  0  0  0  0  0
    0.8520   -1.1430    1.5230 H   0  0  0  0  0  0  0  0  0  0  0  0
    0.5530   -3.6080    1.3550 H   0  0  0  0  0  0  0  0  0  0  0  0
    1.5470   -3.6190   -0.1220 H   0  0  0  0  0  0  0  0  0  0  0  0
    3.4290   -2.6030    1.2030 H   0  0  0  0  0  0  0  0  0  0  0  0
    1.6080   -3.2130    3.5740 H   0  0  0  0  0  0  0  0  0  0  0  0
    3.2700   -2.5820    3.6540 H   0  0  0  0  0  0  0  0  0  0  0  0
    1.9700   -1.5810    2.9630 H   0  0  0  0  0  0  0  0  0  0  0  0
    2.2930   -5.2130    2.3050 H   0  0  0  0  0  0  0  0  0  0  0  0
    3.2890   -5.0520    0.8380 H   0  0  0  0  0  0  0  0  0  0  0  0
    3.9870   -4.6830    2.4330 H   0  0  0  0  0  0  0  0  0  0  0  0
    3.7750    0.7450   -1.1050 H   0  0  0  0  0  0  0  0  0  0  0  0
    5.2430    0.7970    1.5710 H   0  0  0  0  0  0  0  0  0  0  0  0
    5.6380    1.8170    0.1670 H   0  0  0  0  0  0  0  0  0  0  0  0
    2.9390    1.7780    1.6110 H   0  0  0  0  0  0  0  0  0  0  0  0
    3.2540    5.2550   -0.2380 H   0  0  0  0  0  0  0  0  0  0  0  0
    1.9760    4.5880    0.8210 H   0  0  0  0  0  0  0  0  0  0  0  0
    3.9950    3.1170   -0.9000 H   0  0  0  0  0  0  0  0  0  0  0  0
    2.3100    2.6580   -0.4830 H   0  0  0  0  0  0  0  0  0  0  0  0
    5.8210   -1.1470    0.1370 H   0  0  0  0  0  0  0  0  0  0  0  0
   -3.8510   -0.9130    1.2000 H   0  0  0  0  0  0  0  0  0  0  0  0
   -3.8820   -2.6570    0.8470 H   0  0  0  0  0  0  0  0  0  0  0  0
   -4.7800   -0.7880   -1.3990 H   0  0  0  0  0  0  0  0  0  0  0  0
   -6.4860   -1.5580    1.1180 H   0  0  0  0  0  0  0  0  0  0  0  0
   -7.5450   -0.7370   -1.6450 H   0  0  0  0  0  0  0  0  0  0  0  0
   -6.7670    1.2290    0.5560 H   0  0  0  0  0  0  0  0  0  0  0  0
   -5.9490    1.0530   -1.0140 H   0  0  0  0  0  0  0  0  0  0  0  0
   -7.5590    2.9390   -1.0560 H   0  0  0  0  0  0  0  0  0  0  0  0
   -8.0560    1.6500   -2.1790 H   0  0  0  0  0  0  0  0  0  0  0  0
  -10.7200    0.2640    0.0210 H   0  0  0  0  0  0  0  0  0  0  0  0
   -9.9010    0.0880   -1.5500 H   0  0  0  0  0  0  0  0  0  0  0  0
   -9.1100   -1.6220    0.0630 H   0  0  0  0  0  0  0  0  0  0  0  0
   -8.6130   -0.3330    1.1850 H   0  0  0  0  0  0  0  0  0  0  0  0
   -6.3550   -2.7390   -1.7840 H   0  0  0  0  0  0  0  0  0  0  0  0
   -5.7230   -3.5510   -0.2530 H   0  0  0  0  0  0  0  0  0  0  0  0
   -0.1850   -1.4720   -1.1790 H   0  0  0  0  0  0  0  0  0  0  0  0
    3.2830   -0.6610    1.4280 H   0  0  0  0  0  0  0  0  0  0  0  0
    4.1740    5.3980    2.0780 H   0  0  0  0  0  0  0  0  0  0  0  0
    4.0690   -2.2830   -1.0220 H   0  0  0  0  0  0  0  0  0  0  0  0
    7.3030    1.1230   -0.8320 O   0  0  0  0  0  0  0  0  0  0  0  0
    7.4710   -0.8140   -2.3610 O   0  0  0  0  0  0  0  0  0  0  0  0
    5.9400    0.9670   -2.7850 O   0  0  0  0  0  0  0  0  0  0  0  0
    7.9710    1.6490   -1.2930 H   0  0  0  0  0  0  0  0  0  0  0  0
    7.9100   -1.3880   -1.7180 H   0  0  0  0  0  0  0  0  0  0  0  0
  4  6  1  0  0  0  0
 21 26  1  0  0  0  0
 21 25  1  0  0  0  0
 21 22  1  0  0  0  0
 22 23  1  0  0  0  0
 20 21  1  0  0  0  0
  4  5  1  0  0  0  0
  3  4  1  0  0  0  0
 18 23  1  0  0  0  0
 19 20  1  0  0  0  0
  2  3  1  0  0  0  0
 18 19  1  0  0  0  0
 17 18  1  0  0  0  0
  2 27  1  0  0  0  0
  1 27  1  0  0  0  0
  2  7  1  0  0  0  0
  1 34  1  0  0  0  0
 15 34  1  0  0  0  0
  1 30  2  0  0  0  0
 16 17  1  0  0  0  0
 17 24  1  0  0  0  0
 15 16  1  0  0  0  0
 16 24  1  0  0  0  0
  7 33  2  0  0  0  0
  7 28  1  0  0  0  0
  8 28  1  0  0  0  0
 14 35  1  0  0  0  0
  8 14  1  0  0  0  0
 14 32  1  0  0  0  0
  8  9  1  0  0  0  0
  9 10  1  0  0  0  0
 10 13  1  0  0  0  0
 10 11  1  0  0  0  0
 12 13  1  0  0  0  0
 11 31  2  0  0  0  0
 11 29  1  0  0  0  0
 12 29  1  0  0  0  0
  2 36  1  0  0  0  0
  3 37  1  0  0  0  0
  3 38  1  0  0  0  0
  4 39  1  0  0  0  0
  5 40  1  0  0  0  0
  5 41  1  0  0  0  0
  5 42  1  0  0  0  0
  6 43  1  0  0  0  0
  6 44  1  0  0  0  0
  6 45  1  0  0  0  0
  8 46  1  0  0  0  0
  9 47  1  0  0  0  0
  9 48  1  0  0  0  0
 10 49  1  0  0  0  0
 12 50  1  0  0  0  0
 12 51  1  0  0  0  0
 13 52  1  0  0  0  0
 13 53  1  0  0  0  0
 14 54  1  0  0  0  0
 15 55  1  0  0  0  0
 15 56  1  0  0  0  0
 16 57  1  0  0  0  0
 17 58  1  0  0  0  0
 18 59  1  0  0  0  0
 19 60  1  0  0  0  0
 19 61  1  0  0  0  0
 20 62  1  0  0  0  0
 20 63  1  0  0  0  0
 22 64  1  0  0  0  0
 22 65  1  0  0  0  0
 23 66  1  0  0  0  0
 23 67  1  0  0  0  0
 24 68  1  0  0  0  0
 24 69  1  0  0  0  0
 27 70  1  0  0  0  0
 28 71  1  0  0  0  0
 29 72  1  0  0  0  0
 32 73  1  0  0  0  0
 35 74  1  0  0  0  0
 35 75  1  0  0  0  0
 35 76  2  0  0  0  0
 74 77  1  0  0  0  0
 75 78  1  0  0  0  0
M  CHG  1  35   1
M  END
> <OPENEYE_ISO_SMILES>
CC(C)C[C@@H](C(=O)N[C@@H](C[C@@H]1CCNC1=O)[C@@H](O)[S+](=O)(O)O)NC(=O)OC[C@H]2C[C@@H]2C3CCC(CC3)(F)F

> <OPENEYE_INCHI>
InChI=1S/C24H38F2N3O8S/c1-13(2)9-18(21(31)28-19(22(32)38(34,35)36)11-15-5-8-27-20(15)30)29-23(33)37-12-16-10-17(16)14-3-6-24(25,26)7-4-14/h13-19,22,32H,3-12H2,1-2H3,(H3-2,27,28,29,30,31,33,34,35,36)/q-1/p+2/t15-,16+,17+,18-,19-,22-/m0/s1

> <OPENEYE_INCHIKEY>
ACNPODIUBZVYHB-WUOGMODZSA-P

> <FORMULA>
C24H40F2N3O8S+

$$$$
