T47
  -OEChem-02242320043D

 34 35  0     0  0  0  0  0  0999 V2000
   -0.7610   -1.0600   -0.2610 N   0  0  0  0  0  0  0  0  0  0  0  0
    0.3850   -1.5230   -1.0540 C   0  0  0  0  0  0  0  0  0  0  0  0
    1.6660   -1.1320   -0.3630 C   0  0  0  0  0  0  0  0  0  0  0  0
    2.2480   -1.9900    0.5510 C   0  0  0  0  0  0  0  0  0  0  0  0
    3.4220   -1.6320    1.1860 C   0  0  0  0  0  0  0  0  0  0  0  0
    4.0160   -0.4150    0.9060 C   0  0  0  0  0  0  0  0  0  0  0  0
    2.2610    0.0830   -0.6480 C   0  0  0  0  0  0  0  0  0  0  0  0
   -3.1670    0.1920    0.3810 N   0  0  0  0  0  0  0  0  0  0  0  0
   -5.5510    0.2330   -0.2770 C   0  0  0  0  0  0  0  0  0  0  0  0
   -4.3050    2.0940    0.4680 O   0  0  0  0  0  0  0  0  0  0  0  0
   -4.2970    0.9080    0.2170 C   0  0  0  0  0  0  0  0  0  0  0  0
   -0.8130    0.4080   -0.2170 C   0  0  0  0  0  0  0  0  0  0  0  0
   -1.9060    0.8480    0.7620 C   0  0  0  0  0  0  0  0  0  0  0  0
   -3.1610   -1.2650    0.1840 C   0  0  0  0  0  0  0  0  0  0  0  0
   -2.0180   -1.6230   -0.7720 C   0  0  0  0  0  0  0  0  0  0  0  0
    3.4340    0.4440   -0.0090 C   0  0  0  0  0  0  0  0  0  0  0  0
    4.1790    1.9730   -0.3600 Cl  0  0  0  0  0  0  0  0  0  0  0  0
    0.3430   -2.6070   -1.1550 H   0  0  0  0  0  0  0  0  0  0  0  0
    0.3510   -1.0650   -2.0430 H   0  0  0  0  0  0  0  0  0  0  0  0
    1.7840   -2.9410    0.7700 H   0  0  0  0  0  0  0  0  0  0  0  0
    3.8760   -2.3020    1.9000 H   0  0  0  0  0  0  0  0  0  0  0  0
    4.9330   -0.1340    1.4030 H   0  0  0  0  0  0  0  0  0  0  0  0
    1.8090    0.7510   -1.3650 H   0  0  0  0  0  0  0  0  0  0  0  0
   -5.3790   -0.8400   -0.3550 H   0  0  0  0  0  0  0  0  0  0  0  0
   -6.3650    0.4210    0.4230 H   0  0  0  0  0  0  0  0  0  0  0  0
   -5.8150    0.6310   -1.2570 H   0  0  0  0  0  0  0  0  0  0  0  0
    0.1500    0.7960    0.1140 H   0  0  0  0  0  0  0  0  0  0  0  0
   -1.0390    0.7930   -1.2120 H   0  0  0  0  0  0  0  0  0  0  0  0
   -2.0270    1.9300    0.7130 H   0  0  0  0  0  0  0  0  0  0  0  0
   -1.6310    0.5530    1.7750 H   0  0  0  0  0  0  0  0  0  0  0  0
   -3.0060   -1.7630    1.1410 H   0  0  0  0  0  0  0  0  0  0  0  0
   -4.1120   -1.5810   -0.2430 H   0  0  0  0  0  0  0  0  0  0  0  0
   -2.2270   -1.2090   -1.7590 H   0  0  0  0  0  0  0  0  0  0  0  0
   -1.9290   -2.7070   -0.8430 H   0  0  0  0  0  0  0  0  0  0  0  0
  9 11  1  0  0  0  0
 10 11  2  0  0  0  0
  8 11  1  0  0  0  0
  8 14  1  0  0  0  0
 14 15  1  0  0  0  0
  1 15  1  0  0  0  0
  1  2  1  0  0  0  0
  2  3  1  0  0  0  0
  3  4  1  0  0  0  0
  4  5  2  0  0  0  0
  5  6  1  0  0  0  0
  6 16  2  0  0  0  0
 16 17  1  0  0  0  0
  7 16  1  0  0  0  0
  3  7  2  0  0  0  0
  1 12  1  0  0  0  0
 12 13  1  0  0  0  0
  8 13  1  0  0  0  0
  2 18  1  0  0  0  0
  2 19  1  0  0  0  0
  4 20  1  0  0  0  0
  5 21  1  0  0  0  0
  6 22  1  0  0  0  0
  7 23  1  0  0  0  0
  9 24  1  0  0  0  0
  9 25  1  0  0  0  0
  9 26  1  0  0  0  0
 12 27  1  0  0  0  0
 12 28  1  0  0  0  0
 13 29  1  0  0  0  0
 13 30  1  0  0  0  0
 14 31  1  0  0  0  0
 14 32  1  0  0  0  0
 15 33  1  0  0  0  0
 15 34  1  0  0  0  0
M  END
> <OPENEYE_ISO_SMILES>
CC(=O)N1CCN(CC1)Cc2cccc(c2)Cl

> <OPENEYE_INCHI>
InChI=1S/C13H17ClN2O/c1-11(17)16-7-5-15(6-8-16)10-12-3-2-4-13(14)9-12/h2-4,9H,5-8,10H2,1H3

> <OPENEYE_INCHIKEY>
OACABXAYQRNFDV-UHFFFAOYSA-N

> <FORMULA>
C13H17ClN2O

$$$$
