7VI
  -OEChem-02242320013D

 74 76  0     1  0  0  0  0  0999 V2000
   -2.9840    0.5810   -0.1880 N   0  0  0  0  0  0  0  0  0  0  0  0
   -9.0770   -1.4620    1.5170 C   0  0  0  0  0  0  0  0  0  0  0  0
   -5.2950    0.2890   -0.0510 O   0  0  0  0  0  0  0  0  0  0  0  0
   -9.7390   -0.3620    2.0280 C   0  0  0  0  0  0  0  0  0  0  0  0
   -1.6040    2.2650   -1.3020 C   0  0  0  0  0  0  0  0  0  0  0  0
   -2.7610    2.7410   -2.1820 C   0  0  0  0  0  0  0  0  0  0  0  0
   -1.5970    3.0590    0.0050 C   0  0  0  0  0  0  0  0  0  0  0  0
    1.6910   -0.6090   -0.1560 C   0  0  2  0  0  0  0  0  0  0  0  0
    2.9760   -0.2880   -0.8740 C   0  0  0  0  0  0  0  0  0  0  0  0
    1.5100   -2.1270   -0.0870 C   0  0  0  0  0  0  0  0  0  0  0  0
    0.2720   -2.4550    0.7500 C   0  0  0  0  0  0  0  0  0  0  0  0
    5.4000   -0.4230   -1.0850 C   0  0  2  0  0  0  0  0  0  0  0  0
    5.6450   -1.4630   -2.1800 C   0  0  0  0  0  0  0  0  0  0  0  0
    6.5610   -0.4470   -0.0890 C   0  0  0  0  0  0  0  0  0  0  0  0
   -9.3700    0.9110    1.6340 C   0  0  0  0  0  0  0  0  0  0  0  0
    6.3660    0.6600    0.9490 C   0  0  2  0  0  0  0  0  0  0  0  0
    6.4550    2.0510    0.2800 C   0  0  0  0  0  0  0  0  0  0  0  0
    7.1690    2.8800    1.3700 C   0  0  0  0  0  0  0  0  0  0  0  0
    7.5020    0.6550    1.9480 C   0  0  0  0  0  0  0  0  0  0  0  0
   -0.0170   -3.9310    1.0350 C   0  0  0  0  0  0  0  0  0  0  0  0
   -0.8910   -3.1570    0.0450 C   0  0  0  0  0  0  0  0  0  0  0  0
   -8.3390    1.0830    0.7300 C   0  0  0  0  0  0  0  0  0  0  0  0
   -7.6770   -0.0180    0.2190 C   0  0  0  0  0  0  0  0  0  0  0  0
   -8.0420   -1.2900    0.6170 C   0  0  0  0  0  0  0  0  0  0  0  0
   -6.5520    0.1690   -0.7670 C   0  0  0  0  0  0  0  0  0  0  0  0
   -4.1840    0.4630   -0.7910 C   0  0  0  0  0  0  0  0  0  0  0  0
   -1.7760    0.7760   -0.9930 C   0  0  1  0  0  0  0  0  0  0  0  0
   -0.5770    0.2800   -0.2280 C   0  0  0  0  0  0  0  0  0  0  0  0
    0.5650   -0.0150   -0.8810 N   0  0  0  0  0  0  0  0  0  0  0  0
    4.1500   -0.7340   -0.3860 N   0  0  0  0  0  0  0  0  0  0  0  0
    7.9350    1.9100    2.1610 N   0  0  0  0  0  0  0  0  0  0  0  0
   -4.2630    0.5130   -2.0020 O   0  0  0  0  0  0  0  0  0  0  0  0
   -0.6390    0.1460    0.9760 O   0  0  0  0  0  0  0  0  0  0  0  0
    2.9530    0.3710   -1.8920 O   0  0  0  0  0  0  0  0  0  0  0  0
    7.9560   -0.3360    2.4800 O   0  0  0  0  0  0  0  0  0  0  0  0
    5.8560   -2.7430   -1.5820 O   0  0  0  0  0  0  0  0  0  0  0  0
   -2.9220    0.5410    0.7790 H   0  0  0  0  0  0  0  0  0  0  0  0
   -9.3650   -2.4570    1.8250 H   0  0  0  0  0  0  0  0  0  0  0  0
  -10.5450   -0.4960    2.7350 H   0  0  0  0  0  0  0  0  0  0  0  0
   -0.6610    2.4200   -1.8270 H   0  0  0  0  0  0  0  0  0  0  0  0
   -2.6390    3.8010   -2.4020 H   0  0  0  0  0  0  0  0  0  0  0  0
   -2.7660    2.1740   -3.1130 H   0  0  0  0  0  0  0  0  0  0  0  0
   -3.7040    2.5850   -1.6570 H   0  0  0  0  0  0  0  0  0  0  0  0
   -1.4060    4.1110   -0.2090 H   0  0  0  0  0  0  0  0  0  0  0  0
   -2.5650    2.9590    0.4970 H   0  0  0  0  0  0  0  0  0  0  0  0
   -0.8150    2.6740    0.6610 H   0  0  0  0  0  0  0  0  0  0  0  0
    1.7280   -0.2010    0.8550 H   0  0  0  0  0  0  0  0  0  0  0  0
    1.3840   -2.5240   -1.0940 H   0  0  0  0  0  0  0  0  0  0  0  0
    2.3890   -2.5770    0.3740 H   0  0  0  0  0  0  0  0  0  0  0  0
    0.0260   -1.7350    1.5300 H   0  0  0  0  0  0  0  0  0  0  0  0
    5.3270    0.5680   -1.5340 H   0  0  0  0  0  0  0  0  0  0  0  0
    4.7780   -1.5080   -2.8390 H   0  0  0  0  0  0  0  0  0  0  0  0
    6.5260   -1.1820   -2.7570 H   0  0  0  0  0  0  0  0  0  0  0  0
    6.5890   -1.4150    0.4130 H   0  0  0  0  0  0  0  0  0  0  0  0
    7.4990   -0.2860   -0.6200 H   0  0  0  0  0  0  0  0  0  0  0  0
   -9.8880    1.7710    2.0330 H   0  0  0  0  0  0  0  0  0  0  0  0
    5.4090    0.5410    1.4570 H   0  0  0  0  0  0  0  0  0  0  0  0
    7.0520    2.0080   -0.6310 H   0  0  0  0  0  0  0  0  0  0  0  0
    5.4610    2.4490    0.0750 H   0  0  0  0  0  0  0  0  0  0  0  0
    7.8390    3.6080    0.9130 H   0  0  0  0  0  0  0  0  0  0  0  0
    6.4360    3.3860    2.0000 H   0  0  0  0  0  0  0  0  0  0  0  0
    0.6750   -4.6670    0.6260 H   0  0  0  0  0  0  0  0  0  0  0  0
   -0.4530   -4.1810    2.0020 H   0  0  0  0  0  0  0  0  0  0  0  0
   -1.9010   -2.8980    0.3610 H   0  0  0  0  0  0  0  0  0  0  0  0
   -0.7740   -3.3850   -1.0150 H   0  0  0  0  0  0  0  0  0  0  0  0
   -8.0510    2.0770    0.4220 H   0  0  0  0  0  0  0  0  0  0  0  0
   -7.5250   -2.1500    0.2180 H   0  0  0  0  0  0  0  0  0  0  0  0
   -6.7270    1.0740   -1.3490 H   0  0  0  0  0  0  0  0  0  0  0  0
   -6.5090   -0.6900   -1.4360 H   0  0  0  0  0  0  0  0  0  0  0  0
   -1.8670    0.2200   -1.9260 H   0  0  0  0  0  0  0  0  0  0  0  0
    0.6400    0.1650   -1.8310 H   0  0  0  0  0  0  0  0  0  0  0  0
    4.1680   -1.2620    0.4280 H   0  0  0  0  0  0  0  0  0  0  0  0
    8.6620    2.1440    2.7600 H   0  0  0  0  0  0  0  0  0  0  0  0
    6.0180   -3.4530   -2.2180 H   0  0  0  0  0  0  0  0  0  0  0  0
 13 36  1  0  0  0  0
 12 13  1  0  0  0  0
 12 14  1  0  0  0  0
 14 16  1  0  0  0  0
 12 30  1  0  0  0  0
 20 21  1  0  0  0  0
 11 20  1  0  0  0  0
  9 30  1  0  0  0  0
 11 21  1  0  0  0  0
 19 35  2  0  0  0  0
 16 19  1  0  0  0  0
 19 31  1  0  0  0  0
 16 17  1  0  0  0  0
 10 11  1  0  0  0  0
  8 10  1  0  0  0  0
  8  9  1  0  0  0  0
  9 34  2  0  0  0  0
  8 29  1  0  0  0  0
 18 31  1  0  0  0  0
 17 18  1  0  0  0  0
 28 33  2  0  0  0  0
 28 29  1  0  0  0  0
 27 28  1  0  0  0  0
  1 27  1  0  0  0  0
  5 27  1  0  0  0  0
  1 26  1  0  0  0  0
  5  7  1  0  0  0  0
  5  6  1  0  0  0  0
  3 26  1  0  0  0  0
 26 32  2  0  0  0  0
  3 25  1  0  0  0  0
 23 25  1  0  0  0  0
 22 23  2  0  0  0  0
 23 24  1  0  0  0  0
 15 22  1  0  0  0  0
  2 24  2  0  0  0  0
  4 15  2  0  0  0  0
  2  4  1  0  0  0  0
  1 37  1  0  0  0  0
  2 38  1  0  0  0  0
  4 39  1  0  0  0  0
  5 40  1  0  0  0  0
  6 41  1  0  0  0  0
  6 42  1  0  0  0  0
  6 43  1  0  0  0  0
  7 44  1  0  0  0  0
  7 45  1  0  0  0  0
  7 46  1  0  0  0  0
  8 47  1  0  0  0  0
 10 48  1  0  0  0  0
 10 49  1  0  0  0  0
 11 50  1  0  0  0  0
 12 51  1  0  0  0  0
 13 52  1  0  0  0  0
 13 53  1  0  0  0  0
 14 54  1  0  0  0  0
 14 55  1  0  0  0  0
 15 56  1  0  0  0  0
 16 57  1  0  0  0  0
 17 58  1  0  0  0  0
 17 59  1  0  0  0  0
 18 60  1  0  0  0  0
 18 61  1  0  0  0  0
 20 62  1  0  0  0  0
 20 63  1  0  0  0  0
 21 64  1  0  0  0  0
 21 65  1  0  0  0  0
 22 66  1  0  0  0  0
 24 67  1  0  0  0  0
 25 68  1  0  0  0  0
 25 69  1  0  0  0  0
 27 70  1  0  0  0  0
 29 71  1  0  0  0  0
 30 72  1  0  0  0  0
 31 73  1  0  0  0  0
 36 74  1  0  0  0  0
M  END
> <OPENEYE_ISO_SMILES>
CC(C)[C@@H](C(=O)N[C@@H](CC1CC1)C(=O)N[C@@H](C[C@@H]2CCNC2=O)CO)NC(=O)OCc3ccccc3

> <OPENEYE_INCHI>
InChI=1S/C26H38N4O6/c1-16(2)22(30-26(35)36-15-18-6-4-3-5-7-18)25(34)29-21(12-17-8-9-17)24(33)28-20(14-31)13-19-10-11-27-23(19)32/h3-7,16-17,19-22,31H,8-15H2,1-2H3,(H,27,32)(H,28,33)(H,29,34)(H,30,35)/t19-,20-,21-,22-/m0/s1

> <OPENEYE_INCHIKEY>
OBXMCOOSINYKTR-CMOCDZPBSA-N

> <FORMULA>
C26H38N4O6

$$$$
