@<TRIPOS>MOLECULE
/home/pku/3cl/gett_pdb/5RVF/5RVF_mol2/ligand/5RVF_W8D.pdb
 58 34 0 0 0
SMALL
GASTEIGER

@<TRIPOS>ATOM
      1  C10      -44.5210  -28.1020    1.6630 C.3   201  W8D201     -0.0348
      2  C10      -45.2300  -30.8990    1.6850 C.3   201  W8D201     -0.0348
      3  C13      -43.6950  -26.7460    0.0100 C.3   201  W8D201     -0.0262
      4  C13      -43.1910  -31.8540    1.5970 C.3   201  W8D201     -0.0262
      5  C15      -47.2870  -29.1010    3.1830 C.3   201  W8D201      0.0000
      6  C15      -47.3630  -29.1580    3.1410 C.3   201  W8D201     -0.0309
      7  C02      -47.6800  -28.9840    5.4030 C.1   201  W8D201      0.1795
      8  C02      -47.7050  -28.9740    5.4260 C.3   201  W8D201      0.0000
      9  C03      -46.2590  -29.1240    5.6120 C.1   201  W8D201      0.0000
     10  C03      -46.2610  -29.1460    5.6280 C.3   201  W8D201      0.0000
     11  C05      -44.2620  -29.3620    6.3250 C.3   201  W8D201      0.0000
     12  C05      -44.1880  -29.3650    6.3710 C.3   201  W8D201     -0.0309
     13  C07      -45.4890  -29.2820    4.5830 C.3   201  W8D201      0.2176
     14  C07      -45.4890  -29.3070    4.6020 C.1   201  W8D201      0.0000
     15  C09      -45.1100  -29.4220    2.0910 C.3   201  W8D201     -0.0531
     16  C09      -45.1610  -29.5000    2.1410 C.3   201  W8D201     -0.0531
     17  C12      -45.1880  -26.3950    0.1770 C.3   201  W8D201      0.0829
     18  C12      -43.9950  -32.5980    2.6940 C.3   201  W8D201      0.0829
     19  C14      -43.5840  -28.0970    0.6550 C.3   201  W8D201     -0.0475
     20  C14      -44.2260  -31.1400    0.8160 C.3   201  W8D201     -0.0475
     21  N01      -48.5460  -28.8180    6.5310 N.3   201  W8D201      0.0000
     22  N01      -48.5890  -28.7910    6.5720 N.3   201  W8D201     -0.2731
     23  N04      -45.4940  -29.1490    6.7590 N.3   201  W8D201      0.0000
     24  N04      -45.4680  -29.1770    6.7610 N.3   201  W8D201      0.0000
     25  N06      -44.2290  -29.4180    5.0110 N.3   201  W8D201     -0.1088
     26  N06      -44.1720  -29.4470    5.0630 N.3   201  W8D201      0.0000
     27  N08      -45.9870  -29.2650    3.3230 N.3   201  W8D201     -0.1088
     28  N08      -46.0430  -29.3150    3.3310 N.3   201  W8D201      0.0000
     29  N16      -48.1400  -28.9670    4.2180 N.1   201  W8D201     -0.1795
     30  N16      -48.1960  -28.9860    4.2140 N.3   201  W8D201      0.0000
     31  O11      -45.6910  -27.2870    1.0160 O.3   201  W8D201     -0.2348
     32  O11      -45.0440  -31.8610    2.9140 O.3   201  W8D201     -0.2348
     33 H101      -44.1710  -27.6280    2.4320 H     201  W8D201      0.0306
     34 H101      -46.1060  -31.0480    1.3910 H     201  W8D201      0.0306
     35 H132      -43.1350  -26.0990    0.4670 H     201  W8D201      0.0288
     36 H132      -42.7130  -32.4820    1.0340 H     201  W8D201      0.0288
     37 H131      -43.4680  -26.7990   -0.9310 H     201  W8D201      0.0288
     38 H131      -42.5790  -31.2220    2.0050 H     201  W8D201      0.0288
     39 H151      -47.6390  -29.1060    2.3220 H     201  W8D201      0.0309
     40 H151      -47.7120  -29.1660    2.2790 H     201  W8D201      0.0000
     41 H051      -43.5120  -29.4170    6.8720 H     201  W8D201      0.0309
     42 H051      -43.4470  -29.4250    6.9300 H     201  W8D201      0.0000
     43 H092      -44.3880  -30.0410    2.2830 H     201  W8D201      0.0265
     44 H092      -45.4480  -28.9140    1.4230 H     201  W8D201      0.0265
     45 H091      -45.6510  -29.7770    1.3680 H     201  W8D201      0.0265
     46 H091      -44.2490  -29.2850    2.3920 H     201  W8D201      0.0265
     47 H121      -45.6330  -26.4600   -0.6820 H     201  W8D201      0.0591
     48 H121      -43.4530  -32.6770    3.4920 H     201  W8D201      0.0591
     49 H122      -45.2850  -25.5030    0.5450 H     201  W8D201      0.0591
     50 H122      -44.2650  -33.4680    2.3640 H     201  W8D201      0.0591
     51 H141      -42.6960  -28.2220    1.0250 H     201  W8D201      0.0269
     52 H141      -44.5380  -31.7010    0.0890 H     201  W8D201      0.0269
     53 H142      -43.7860  -28.7900    0.0080 H     201  W8D201      0.0269
     54 H142      -43.8670  -30.3070    0.4730 H     201  W8D201      0.0269
     55 H011      -49.3680  -28.5930    6.4140 H     201  W8D201      0.1366
     56 H011      -49.4410  -28.7560    6.4580 H     201  W8D201      0.0000
     57 H012      -48.2440  -28.9430    7.3260 H     201  W8D201      0.1366
     58 H012      -48.2580  -28.7190    7.3630 H     201  W8D201      0.0000
@<TRIPOS>BOND
     1    37     3    1
     2    47    17    1
     3    53    19    1
     4     3    17    1
     5     3    35    1
     6     3    19    1
     7    52    20    1
     8    17    49    1
     9    17    31    1
    10    54    20    1
    11    19    51    1
    12    19     1    1
    13    20     4    1
    14    20     2    1
    15    36     4    1
    16    45    16    1
    17    34     2    1
    18    44    15    1
    19     4    38    1
    20     4    18    1
    21     1    33    1
    22    15    46    1
    23    16    43    1
    24    39     6    1
    25    50    18    1
    26    18    32    1
    27    18    48    1
    28    27    13    1
    29    29     7    3
    30    13    25    1
    31    14     9    3
    32    12    41    1
    33    55    22    1
    34    22    57    1
