@<TRIPOS>MOLECULE
/home/pku/3cl/gett_pdb/7XRS/7XRS_mol2/ligand/7XRS_HUR.pdb
 41 45 0 0 0
SMALL
GASTEIGER

@<TRIPOS>ATOM
      1  C1       -23.6200   -7.8780   -3.4530 C.2   401  HUR401      0.0074
      2  C10      -21.3390   -9.4230    1.9570 C.2   401  HUR401      0.2829
      3  C11      -21.0930  -11.2320    3.6050 C.3   401  HUR401      0.1731
      4  C12      -19.6000  -11.3990    3.5500 C.2   401  HUR401      0.2616
      5  C13      -17.4250  -11.2010    4.6660 C.3   401  HUR401      0.1588
      6  C14      -16.6410   -9.8960    4.8030 C.3   401  HUR401      0.0337
      7  C15      -16.7300   -9.1360    3.4760 C.3   401  HUR401      0.0511
      8  C16      -16.0450   -9.7380    2.5690 C.3   401  HUR401      0.0230
      9  C17      -15.2590   -8.6090    1.8030 C.3   401  HUR401      0.0914
     10  C18      -16.1440   -7.5690    3.4980 C.3   401  HUR401      0.2256
     11  C19      -17.0280  -12.3070    5.6310 C.2   401  HUR401      0.2162
     12  C2       -22.9150   -6.7480   -3.1680 C.2   401  HUR401     -0.0003
     13  C20      -17.8240  -13.5640    5.6090 C.ar  401  HUR401      0.1471
     14  C21      -18.2470  -15.5420    4.7410 C.ar  401  HUR401      0.0880
     15  C22      -19.2340  -15.5720    5.6900 C.ar  401  HUR401      0.0486
     16  C23      -18.0480  -16.5970    3.8660 C.ar  401  HUR401      0.0196
     17  C24      -18.8620  -17.6870    3.9450 C.ar  401  HUR401      0.0016
     18  C25      -19.8520  -17.7150    4.9180 C.ar  401  HUR401      0.0006
     19  C26      -20.0420  -16.6670    5.7870 C.ar  401  HUR401      0.0080
     20  C27      -21.6700  -12.5830    3.9860 C.3   401  HUR401      0.0311
     21  C28      -23.1350  -12.5080    4.2080 C.3   401  HUR401      0.0022
     22  C29      -23.4040  -11.5460    5.3110 C.3   401  HUR401      0.0001
     23  C3       -22.2160   -6.6600   -1.9890 C.2   401  HUR401      0.0186
     24  C30      -23.8090  -13.8400    4.4500 C.3   401  HUR401      0.0001
     25  C4       -22.2270   -7.7110   -1.0610 C.2   401  HUR401      0.0801
     26  C5       -22.9200   -8.8170   -1.3480 C.2   401  HUR401      0.0280
     27  C6       -23.6270   -8.9250   -2.5690 C.3   401  HUR401      0.1611
     28  C7       -21.8870   -8.9280    0.6440 C.2   401  HUR401      0.1359
     29  C8       -22.7050   -9.6170   -0.2290 C.2   401  HUR401      0.0237
     30  C9       -24.6530  -10.4490   -4.0920 C.3   401  HUR401      0.1749
     31  N1       -21.6230   -7.8180    0.1170 N.2   401  HUR401     -0.2410
     32  N2       -21.6100  -10.7380    2.3690 N.am  401  HUR401     -0.1927
     33  N3       -18.8320  -11.0460    4.6890 N.am  401  HUR401     -0.1978
     34  N4       -15.0320   -7.5530    2.9010 N.3   401  HUR401     -0.1893
     35  N5       -17.5150  -14.4110    4.7320 N.ar  401  HUR401     -0.2354
     36  O1       -24.3650  -10.0440   -2.8190 O.3   401  HUR401     -0.3447
     37  O2       -20.6920   -8.7480    2.5990 O.2   401  HUR401     -0.2667
     38  O3       -19.1010  -11.8330    2.6470 O.2   401  HUR401     -0.2715
     39  O4       -16.0570  -12.2880    6.1560 O.2   401  HUR401     -0.2874
     40  O5       -16.0240   -7.0910    4.7260 O.3   401  HUR401     -0.2037
     41  S1       -19.1100  -14.1150    6.4890 S.2   401  HUR401     -0.0636
@<TRIPOS>BOND
     1    30    36    1
     2     1    12    2
     3     1    27    1
     4    12    23    1
     5    36    27    1
     6    27    26    1
     7    23    25    2
     8    26    25    1
     9    26    29    2
    10    25    31    1
    11    29    28    1
    12    31    28    2
    13    28     2    1
    14     9     8    1
    15     9    34    1
    16     2    32   am
    17     2    37    2
    18    32     3    1
    19     8     7    1
    20    38     4    2
    21    34    10    1
    22     7    10    1
    23     7     6    1
    24    10    40    1
    25     4     3    1
    26     4    33   am
    27     3    20    1
    28    16    17   ar
    29    16    14   ar
    30    17    18   ar
    31    20    21    1
    32    21    24    1
    33    21    22    1
    34     5    33    1
    35     5     6    1
    36     5    11    1
    37    35    14   ar
    38    35    13   ar
    39    14    15   ar
    40    18    19   ar
    41    13    11    1
    42    13    41   ar
    43    11    39    2
    44    15    19   ar
    45    15    41   ar
