@<TRIPOS>MOLECULE
/home/pku/3cl/gett_pdb/5SR6/5SR6_mol2/ligand/5SR6_QZF.pdb
 41 45 0 0 0
SMALL
GASTEIGER

@<TRIPOS>ATOM
      1  C18      -44.3350  -26.0510    0.9790 C.3   201  QZF201     -0.0424
      2  N1       -45.4000  -28.6700    2.8290 N.pl3 201  QZF201     -0.3103
      3  C16      -43.4090  -27.5310   -0.2360 C.3   201  QZF201     -0.0424
      4  C17      -43.3810  -26.0320   -0.1790 C.3   201  QZF201     -0.0517
      5  C15      -44.4990  -27.5960    0.8700 C.3   201  QZF201      0.0326
      6  C14      -44.1370  -28.3070    2.1840 C.3   201  QZF201      0.0228
      7  C13      -44.4490  -29.1610    6.2280 C.ar  201  QZF201      0.1204
      8  O2       -47.5410  -26.8250    0.0160 O.co2 201  QZF201     -0.2427
      9  C12      -46.6680  -29.1300    6.3010 C.ar  201  QZF201      0.1442
     10  C11      -49.0570  -28.7070    3.5640 C.ar  201  QZF201     -0.0518
     11  C10      -50.4410  -28.7040    3.7340 C.ar  201  QZF201     -0.0611
     12  C9       -50.9900  -28.8720    4.9900 C.ar  201  QZF201     -0.0598
     13  C8       -50.1680  -29.0380    6.0790 C.ar  201  QZF201     -0.0377
     14  C7       -48.7980  -29.0350    5.9210 C.ar  201  QZF201      0.0487
     15  C6       -48.2000  -28.8730    4.6600 C.ar  201  QZF201      0.0123
     16  C5       -46.7650  -28.9370    4.9160 C.ar  201  QZF201      0.0663
     17  C4       -45.5290  -28.8700    4.2650 C.ar  201  QZF201      0.1345
     18  C3       -46.4390  -28.7480    1.8350 C.3   201  QZF201      0.0588
     19  C2       -45.7500  -28.3940    0.5420 C.3   201  QZF201      0.2335
     20  C1       -46.5860  -27.5330   -0.4030 C.2   201  QZF201      0.3945
     21  O1       -46.2660  -27.5300   -1.6190 O.co2 201  QZF201     -0.2427
     22  F1       -45.3980  -29.5530   -0.0700 F     201  QZF201     -0.2274
     23  N2       -47.8500  -29.1720    6.7710 N.ar  201  QZF201     -0.3389
     24  N3       -45.5280  -29.2510    6.9900 N.ar  201  QZF201     -0.2178
     25  N4       -44.4140  -28.9800    4.9350 N.ar  201  QZF201     -0.2200
     26  H15      -43.9120  -25.7810    1.8090 H     201  QZF201      0.0272
     27  H16      -45.1550  -25.5690    0.7910 H     201  QZF201      0.0272
     28  H12      -43.7340  -27.8650   -1.0870 H     201  QZF201      0.0272
     29  H11      -42.5790  -27.9370    0.0500 H     201  QZF201      0.0272
     30  H13      -43.7670  -25.6210   -0.9680 H     201  QZF201      0.0266
     31  H14      -42.5110  -25.6850    0.0630 H     201  QZF201      0.0266
     32  H10      -43.6370  -29.1140    1.9960 H     201  QZF201      0.0471
     33  H9       -43.6260  -27.7180    2.7580 H     201  QZF201      0.0471
     34  H8       -43.6190  -29.2340    6.6540 H     201  QZF201      0.1048
     35  H6       -48.7130  -28.5920    2.7100 H     201  QZF201      0.0624
     36  H5       -50.9960  -28.5910    3.0000 H     201  QZF201      0.0618
     37  H4       -51.9100  -28.8690    5.0900 H     201  QZF201      0.0618
     38  H3       -50.5380  -29.1500    6.9230 H     201  QZF201      0.0638
     39  H2       -46.8120  -29.6510    1.7950 H     201  QZF201      0.0501
     40  H1       -47.1170  -28.0950    2.0310 H     201  QZF201      0.0501
     41  H7       -48.0120  -29.2950    7.6370 H     201  QZF201      0.1673
@<TRIPOS>BOND
     1    21    20   ar
     2    28     3    1
     3    30     4    1
     4    20     8   ar
     5    20    19    1
     6     3     4    1
     7     3    29    1
     8     3     5    1
     9     4    31    1
    10     4     1    1
    11    22    19    1
    12    19     5    1
    13    19    18    1
    14    27     1    1
    15     5     1    1
    16     5     6    1
    17     1    26    1
    18    39    18    1
    19    18    40    1
    20    18     2    1
    21    32     6    1
    22     6    33    1
    23     6     2    1
    24    35    10    1
    25     2    17    1
    26    36    11    1
    27    10    11   ar
    28    10    15   ar
    29    11    12   ar
    30    17    16   ar
    31    17    25   ar
    32    15    16   ar
    33    15    14   ar
    34    16     9   ar
    35    25     7   ar
    36    12    37    1
    37    12    13   ar
    38    14    13   ar
    39    14    23   ar
    40    13    38    1
    41     7    34    1
    42     7    24   ar
    43     9    23   ar
    44     9    24   ar
    45    23    41    1
