@<TRIPOS>MOLECULE
/home/pku/3cl/gett_pdb/6YWL/6YWL_mol2/ligand/6YWL_APR.pdb
 36 39 0 0 0
SMALL
GASTEIGER

@<TRIPOS>ATOM
      1  N1        39.1890   74.3590    5.5700 N.ar  201  APR201     -0.2040
      2  C2        38.4960   73.3050    5.1120 C.ar  201  APR201      0.2016
      3  N3        38.9430   72.1710    4.5720 N.ar  201  APR201     -0.2048
      4  C4        40.2840   72.1640    4.5340 C.ar  201  APR201      0.1692
      5  C5        41.1310   73.1600    4.9590 C.ar  201  APR201      0.1518
      6  C6        40.5440   74.3250    5.4880 C.ar  201  APR201      0.1919
      7  N6        41.2410   75.3580    5.9460 N.pl3 201  APR201     -0.1054
      8  N7        42.4540   72.7760    4.7690 N.ar  201  APR201     -0.2193
      9  C8        42.3750   71.5590    4.2640 C.ar  201  APR201      0.1816
     10  N9        41.0750   71.1600    4.0720 N.ar  201  APR201     -0.2693
     11  C1'       40.5960   69.8970    3.5960 C.3   201  APR201      0.2409
     12  C2'       41.6090   69.0690    2.8170 C.3   201  APR201      0.2337
     13  O2'       41.6520   69.4270    1.4540 O.3   201  APR201     -0.2155
     14  C3'       41.0360   67.6680    3.0210 C.3   201  APR201      0.2161
     15  O3'       39.9550   67.3940    2.1320 O.3   201  APR201     -0.2175
     16  O4'       40.2480   69.1250    4.7220 O.3   201  APR201     -0.3306
     17  C4'       40.5450   67.7270    4.4770 C.3   201  APR201      0.1801
     18  C5'       41.5100   67.2300    5.5280 C.3   201  APR201      0.1813
     19  O5'       42.8750   67.4740    5.0970 O.3   201  APR201     -0.3112
     20  PA        44.0310   67.6190    6.2000 P.3   201  APR201      0.2189
     21  O1A       45.3610   67.5020    5.5290 O.2   201  APR201     -0.5170
     22  O2A       43.7560   68.8060    7.0600 O.3   201  APR201     -0.4371
     23  O3A       43.7710   66.3230    7.0730 O.3   201  APR201     -0.2703
     24  PB        44.4030   64.8590    7.1000 P.3   201  APR201      0.2189
     25  O1B       43.7020   64.0960    8.1700 O.3   201  APR201     -0.4371
     26  O2B       44.4240   64.2970    5.7070 O.2   201  APR201     -0.5170
     27  O5D       45.9010   65.1780    7.5500 O.3   201  APR201     -0.3112
     28  C5D       46.2410   65.2760    8.9490 C.3   201  APR201      0.1813
     29  O4D       47.8500   66.9880    8.3750 O.3   201  APR201     -0.3237
     30  O1D       47.3960   69.1020    9.1320 O.3   201  APR201     -0.1869
     31  C1D       48.1890   68.0130    9.3140 C.3   201  APR201      0.3023
     32  O2D       48.6510   68.0010   11.7520 O.3   201  APR201     -0.2148
     33  C2D       47.9010   67.4220   10.7000 C.3   201  APR201      0.2433
     34  O3D       49.5820   65.6360   10.5650 O.3   201  APR201     -0.2175
     35  C3D       48.1980   65.9460   10.4970 C.3   201  APR201      0.2168
     36  C4D       47.6820   65.7200    9.0710 C.3   201  APR201      0.1807
@<TRIPOS>BOND
     1    13    12    1
     2    15    14    1
     3    12    14    1
     4    12    11    1
     5    14    17    1
     6    11    10    1
     7    11    16    1
     8    10     9   ar
     9    10     4   ar
    10     9     8   ar
    11    17    16    1
    12    17    18    1
    13     4     3   ar
    14     4     5   ar
    15     3     2   ar
    16     8     5   ar
    17     5     6   ar
    18    19    18    1
    19    19    20    1
    20     2     1   ar
    21     6     1   ar
    22     6     7    1
    23    21    20    2
    24    26    24    2
    25    20    22    1
    26    20    23    1
    27    23    24    1
    28    24    27    1
    29    24    25    1
    30    27    28    1
    31    29    36    1
    32    29    31    1
    33    28    36    1
    34    36    35    1
    35    30    31    1
    36    31    33    1
    37    35    34    1
    38    35    33    1
    39    33    32    1
