@<TRIPOS>MOLECULE
/home/pku/3cl/gett_pdb/5C5O/5C5O_mol2/ligand/5C5O_SDJ.pdb
 32 35 0 0 0
SMALL
GASTEIGER

@<TRIPOS>ATOM
      1  O          0.4260   16.9340  -11.9030 O.2   401  SDJ401     -0.2748
      2  C          1.4560   17.4040  -11.4750 C.2   401  SDJ401      0.2274
      3  N1         2.3230   16.7090  -10.7240 N.am  401  SDJ401     -0.2797
      4  C1         1.8670   18.8200  -11.8210 C.3   401  SDJ401      0.1085
      5  N          1.1920   21.0680  -12.6000 N.pl3 401  SDJ401     -0.2371
      6  O1        -0.6860   15.5930   -5.4630 O.2   401  SDJ401     -0.2868
      7  C20        0.1350   15.2180   -6.2620 C.2   401  SDJ401      0.2248
      8  C19       -0.2270   14.4190   -7.5180 C.3   401  SDJ401      0.1432
      9  C21       -0.8110   13.0770   -7.1290 C.3   401  SDJ401      0.0728
     10  C22       -1.9090   12.5350   -7.9850 C.ar  401  SDJ401      0.0817
     11  N4        -2.4920   11.3560   -7.7830 N.ar  401  SDJ401     -0.2268
     12  C24       -3.4480   11.1890   -8.6960 C.ar  401  SDJ401      0.1986
     13  N3        -3.4770   12.2590   -9.4900 N.ar  401  SDJ401     -0.2212
     14  C23       -2.5270   13.1080   -9.0590 C.ar  401  SDJ401      0.1154
     15  N2         0.9310   14.1990   -8.3910 N.3   401  SDJ401     -0.2094
     16  C18        1.4070   15.4740   -8.8820 C.3   401  SDJ401      0.1089
     17  C17        1.9380   15.3550  -10.2960 C.3   401  SDJ401      0.0927
     18  C16        3.1170   14.3820  -10.4280 C.3   401  SDJ401      0.0213
     19  C15        4.4590   14.8870   -9.9360 C.3   401  SDJ401      0.0033
     20  C14        5.5630   13.9160  -10.3610 C.3   401  SDJ401      0.0001
     21  C13        6.9270   14.4210   -9.9430 C.3   401  SDJ401      0.0000
     22  C12        7.2030   15.8730  -10.3430 C.3   401  SDJ401      0.0001
     23  C11        6.0420   16.7860   -9.9960 C.3   401  SDJ401      0.0017
     24  C10        4.7340   16.2310  -10.5380 C.3   401  SDJ401      0.0199
     25  C9         3.6140   17.2140  -10.2560 C.3   401  SDJ401      0.0933
     26  C2         0.7740   19.6870  -12.4280 C.3   401  SDJ401      0.1218
     27  C3         1.8310   21.7780  -11.6390 C.ar  401  SDJ401      0.0653
     28  C8         1.6710   21.4890  -10.2780 C.ar  401  SDJ401      0.0161
     29  C7         2.3690   22.2190   -9.3090 C.ar  401  SDJ401      0.0013
     30  C6         3.2110   23.2450   -9.7200 C.ar  401  SDJ401      0.0001
     31  C5         3.3530   23.5390  -11.0570 C.ar  401  SDJ401      0.0013
     32  C4         2.6760   22.7990  -12.0070 C.ar  401  SDJ401      0.0161
@<TRIPOS>BOND
     1     5    26    1
     2     5    27    1
     3    26     4    1
     4    32    27   ar
     5    32    31   ar
     6     1     2    2
     7     4     2    1
     8    27    28   ar
     9     2     3   am
    10    31    30   ar
    11     3    17    1
    12     3    25    1
    13    24    25    1
    14    24    23    1
    15    24    19    1
    16    18    17    1
    17    18    19    1
    18    20    21    1
    19    20    19    1
    20    22    23    1
    21    22    21    1
    22    17    16    1
    23    28    29   ar
    24    30    29   ar
    25    13    14   ar
    26    13    12   ar
    27    14    10   ar
    28    16    15    1
    29    12    11   ar
    30    15     8    1
    31    10    11   ar
    32    10     9    1
    33     8     9    1
    34     8     7    1
    35     7     6    2
