QZD
  -OEChem-02242320033D

 65 66  0     1  0  0  0  0  0999 V2000
    4.6380    0.8270   -0.8540 C   0  0  0  0  0  0  0  0  0  0  0  0
    3.0030    1.8470    0.7380 C   0  0  0  0  0  0  0  0  0  0  0  0
    3.5170    2.0660    1.9610 N   0  0  0  0  0  0  0  0  0  0  0  0
    4.9150    2.5060    1.8800 C   0  0  0  0  0  0  0  0  0  0  0  0
   -2.2090   -0.3230   -0.0460 C   0  0  0  0  0  0  0  0  0  0  0  0
    0.1540   -0.9090   -0.1460 C   0  0  1  0  0  0  0  0  0  0  0  0
    0.2540   -2.3720    0.2910 C   0  0  0  0  0  0  0  0  0  0  0  0
    1.5480   -2.5810    1.0810 C   0  0  0  0  0  0  0  0  0  0  0  0
    1.4710   -1.8100    2.4000 C   0  0  0  0  0  0  0  0  0  0  0  0
    1.7320   -4.0720    1.3720 C   0  0  0  0  0  0  0  0  0  0  0  0
    1.2610   -0.6000   -1.1210 C   0  0  0  0  0  0  0  0  0  0  0  0
    3.5600    0.0440   -1.6060 C   0  0  1  0  0  0  0  0  0  0  0  0
    4.0430    2.1320   -0.3230 C   0  0  1  0  0  0  0  0  0  0  0  0
    5.1200    2.9610    0.4180 C   0  0  0  0  0  0  0  0  0  0  0  0
    4.1840   -1.2000   -2.2430 C   0  0  0  0  0  0  0  0  0  0  0  0
   -4.5440    0.0660    0.2580 C   0  0  0  0  0  0  0  0  0  0  0  0
   -4.6420   -1.0280    1.3230 C   0  0  0  0  0  0  0  0  0  0  0  0
   -4.8420   -2.3840    0.6440 C   0  0  0  0  0  0  0  0  0  0  0  0
   -4.3440    1.4260    0.9350 C   0  0  0  0  0  0  0  0  0  0  0  0
   -5.6030    2.4770   -0.8120 C   0  0  0  0  0  0  0  0  0  0  0  0
   -5.8410    0.1060   -0.5590 C   0  0  0  0  0  0  0  0  0  0  0  0
   -1.1420   -0.6790   -0.7890 N   0  0  0  0  0  0  0  0  0  0  0  0
    2.5090   -0.3620   -0.6700 N   0  0  0  0  0  0  0  0  0  0  0  0
   -2.0770   -0.1040    1.1410 O   0  0  0  0  0  0  0  0  0  0  0  0
    1.8710    1.4700    0.5170 O   0  0  0  0  0  0  0  0  0  0  0  0
    4.8490   -1.9670   -1.2370 O   0  0  0  0  0  0  0  0  0  0  0  0
    1.0280   -0.5640   -2.3100 O   0  0  0  0  0  0  0  0  0  0  0  0
   -3.4210   -0.2090   -0.6210 O   0  0  0  0  0  0  0  0  0  0  0  0
   -4.3870    2.4520   -0.0610 O   0  0  0  0  0  0  0  0  0  0  0  0
   -5.7880    1.2160   -1.4600 O   0  0  0  0  0  0  0  0  0  0  0  0
    5.0060    0.2290   -0.0200 H   0  0  0  0  0  0  0  0  0  0  0  0
    5.4630    1.0520   -1.5300 H   0  0  0  0  0  0  0  0  0  0  0  0
    3.0260    1.9500    2.7890 H   0  0  0  0  0  0  0  0  0  0  0  0
    5.0850    3.3390    2.5620 H   0  0  0  0  0  0  0  0  0  0  0  0
    5.5870    1.6800    2.1160 H   0  0  0  0  0  0  0  0  0  0  0  0
    0.2470   -0.2620    0.7260 H   0  0  0  0  0  0  0  0  0  0  0  0
   -0.6000   -2.6220    0.9210 H   0  0  0  0  0  0  0  0  0  0  0  0
    0.2570   -3.0150   -0.5890 H   0  0  0  0  0  0  0  0  0  0  0  0
    2.3930   -2.2180    0.4960 H   0  0  0  0  0  0  0  0  0  0  0  0
    2.4200   -1.8980    2.9280 H   0  0  0  0  0  0  0  0  0  0  0  0
    1.2650   -0.7590    2.1950 H   0  0  0  0  0  0  0  0  0  0  0  0
    0.6720   -2.2230    3.0160 H   0  0  0  0  0  0  0  0  0  0  0  0
    1.7860   -4.6220    0.4320 H   0  0  0  0  0  0  0  0  0  0  0  0
    2.6540   -4.2210    1.9340 H   0  0  0  0  0  0  0  0  0  0  0  0
    0.8870   -4.4350    1.9560 H   0  0  0  0  0  0  0  0  0  0  0  0
    3.1300    0.6740   -2.3850 H   0  0  0  0  0  0  0  0  0  0  0  0
    3.6080    2.7110   -1.1370 H   0  0  0  0  0  0  0  0  0  0  0  0
    4.9360    4.0300    0.3130 H   0  0  0  0  0  0  0  0  0  0  0  0
    6.1190    2.7020    0.0660 H   0  0  0  0  0  0  0  0  0  0  0  0
    3.4020   -1.8040   -2.7030 H   0  0  0  0  0  0  0  0  0  0  0  0
    4.9040   -0.8960   -3.0030 H   0  0  0  0  0  0  0  0  0  0  0  0
   -3.7240   -1.0470    1.9100 H   0  0  0  0  0  0  0  0  0  0  0  0
   -5.4880   -0.8220    1.9780 H   0  0  0  0  0  0  0  0  0  0  0  0
   -4.9120   -3.1640    1.4020 H   0  0  0  0  0  0  0  0  0  0  0  0
   -5.7600   -2.3650    0.0570 H   0  0  0  0  0  0  0  0  0  0  0  0
   -3.9960   -2.5910   -0.0120 H   0  0  0  0  0  0  0  0  0  0  0  0
   -5.1380    1.5910    1.6640 H   0  0  0  0  0  0  0  0  0  0  0  0
   -3.3770    1.4440    1.4390 H   0  0  0  0  0  0  0  0  0  0  0  0
   -6.4410    2.6660   -0.1400 H   0  0  0  0  0  0  0  0  0  0  0  0
   -5.5520    3.2660   -1.5610 H   0  0  0  0  0  0  0  0  0  0  0  0
   -5.9440   -0.8200   -1.1250 H   0  0  0  0  0  0  0  0  0  0  0  0
   -6.6910    0.2190    0.1130 H   0  0  0  0  0  0  0  0  0  0  0  0
   -1.2320   -0.7820   -1.7490 H   0  0  0  0  0  0  0  0  0  0  0  0
    2.7110   -0.4600    0.2730 H   0  0  0  0  0  0  0  0  0  0  0  0
    5.2680   -2.7730   -1.5700 H   0  0  0  0  0  0  0  0  0  0  0  0
 20 30  1  0  0  0  0
 21 30  1  0  0  0  0
  4 14  1  0  0  0  0
  3  4  1  0  0  0  0
 20 29  1  0  0  0  0
 13 14  1  0  0  0  0
 15 26  1  0  0  0  0
 11 27  2  0  0  0  0
 16 21  1  0  0  0  0
  2  3  1  0  0  0  0
 12 15  1  0  0  0  0
  1 12  1  0  0  0  0
 12 23  1  0  0  0  0
 19 29  1  0  0  0  0
  1 13  1  0  0  0  0
  2 13  1  0  0  0  0
 11 23  1  0  0  0  0
  6 11  1  0  0  0  0
  2 25  2  0  0  0  0
 16 19  1  0  0  0  0
 16 17  1  0  0  0  0
 16 28  1  0  0  0  0
 17 18  1  0  0  0  0
  6 22  1  0  0  0  0
  5 22  1  0  0  0  0
  6  7  1  0  0  0  0
  7  8  1  0  0  0  0
  5 28  1  0  0  0  0
  5 24  2  0  0  0  0
  8  9  1  0  0  0  0
  8 10  1  0  0  0  0
  1 31  1  0  0  0  0
  1 32  1  0  0  0  0
  3 33  1  0  0  0  0
  4 34  1  0  0  0  0
  4 35  1  0  0  0  0
  6 36  1  0  0  0  0
  7 37  1  0  0  0  0
  7 38  1  0  0  0  0
  8 39  1  0  0  0  0
  9 40  1  0  0  0  0
  9 41  1  0  0  0  0
  9 42  1  0  0  0  0
 10 43  1  0  0  0  0
 10 44  1  0  0  0  0
 10 45  1  0  0  0  0
 12 46  1  0  0  0  0
 13 47  1  0  0  0  0
 14 48  1  0  0  0  0
 14 49  1  0  0  0  0
 15 50  1  0  0  0  0
 15 51  1  0  0  0  0
 17 52  1  0  0  0  0
 17 53  1  0  0  0  0
 18 54  1  0  0  0  0
 18 55  1  0  0  0  0
 18 56  1  0  0  0  0
 19 57  1  0  0  0  0
 19 58  1  0  0  0  0
 20 59  1  0  0  0  0
 20 60  1  0  0  0  0
 21 61  1  0  0  0  0
 21 62  1  0  0  0  0
 22 63  1  0  0  0  0
 23 64  1  0  0  0  0
 26 65  1  0  0  0  0
M  END
> <OPENEYE_ISO_SMILES>
CCC1(COCOC1)OC(=O)N[C@@H](CC(C)C)C(=O)N[C@@H](C[C@@H]2CCNC2=O)CO

> <OPENEYE_INCHI>
InChI=1S/C20H35N3O7/c1-4-20(10-28-12-29-11-20)30-19(27)23-16(7-13(2)3)18(26)22-15(9-24)8-14-5-6-21-17(14)25/h13-16,24H,4-12H2,1-3H3,(H,21,25)(H,22,26)(H,23,27)/t14-,15-,16-/m0/s1

> <OPENEYE_INCHIKEY>
CIPOPMFGDDGOBO-JYJNAYRXSA-N

> <FORMULA>
C20H35N3O7

$$$$
