W3A
  -OEChem-02242320043D

 15 15  0     0  0  0  0  0  0999 V2000
    0.9110   -1.2320   -0.6160 N   0  0  0  0  0  0  0  0  0  0  0  0
   -0.3680   -1.4070   -0.4000 C   0  0  0  0  0  0  0  0  0  0  0  0
    3.1340   -0.7320    0.9800 O   0  0  0  0  0  0  0  0  0  0  0  0
    3.4860    0.1460    0.2280 C   0  0  0  0  0  0  0  0  0  0  0  0
    4.7610    0.5680    0.2390 O   0  0  0  0  0  0  0  0  0  0  0  0
    2.4950    0.7680   -0.7220 C   0  0  0  0  0  0  0  0  0  0  0  0
    1.1840    0.1390   -0.5400 N   0  0  0  0  0  0  0  0  0  0  0  0
    0.0270    0.7800   -0.2700 C   0  0  0  0  0  0  0  0  0  0  0  0
   -0.9490   -0.1540   -0.1780 C   0  0  0  0  0  0  0  0  0  0  0  0
   -2.7750    0.1780    0.1850 Br  0  0  0  0  0  0  0  0  0  0  0  0
   -0.8850   -2.3550   -0.3930 H   0  0  0  0  0  0  0  0  0  0  0  0
    5.3600    0.1390    0.8660 H   0  0  0  0  0  0  0  0  0  0  0  0
    2.4180    1.8360   -0.5180 H   0  0  0  0  0  0  0  0  0  0  0  0
    2.8320    0.6170   -1.7470 H   0  0  0  0  0  0  0  0  0  0  0  0
   -0.0980    1.8460   -0.1490 H   0  0  0  0  0  0  0  0  0  0  0  0
  9 10  1  0  0  0  0
  8  9  2  0  0  0  0
  2  9  1  0  0  0  0
  7  8  1  0  0  0  0
  1  2  2  0  0  0  0
  1  7  1  0  0  0  0
  6  7  1  0  0  0  0
  4  6  1  0  0  0  0
  3  4  2  0  0  0  0
  4  5  1  0  0  0  0
  2 11  1  0  0  0  0
  5 12  1  0  0  0  0
  6 13  1  0  0  0  0
  6 14  1  0  0  0  0
  8 15  1  0  0  0  0
M  END
> <OPENEYE_ISO_SMILES>
c1c(cn(n1)CC(=O)O)Br

> <OPENEYE_INCHI>
InChI=1S/C5H5BrN2O2/c6-4-1-7-8(2-4)3-5(9)10/h1-2H,3H2,(H,9,10)

> <OPENEYE_INCHIKEY>
WRXIKBHQDRMYJJ-UHFFFAOYSA-N

> <FORMULA>
C5H5BrN2O2

$$$$
