W24
  -OEChem-02242320043D

 33 33  0     1  0  0  0  0  0999 V2000
   -1.1130   -0.3340    0.1650 N   0  0  3  0  0  0  0  0  0  0  0  0
   -0.2470   -2.4610   -0.6610 C   0  0  0  0  0  0  0  0  0  0  0  0
   -1.2850   -1.7910    0.2450 C   0  0  0  0  0  0  0  0  0  0  0  0
    0.2160    0.2350    0.4280 C   0  0  1  0  0  0  0  0  0  0  0  0
    0.5920    0.0050    1.8930 C   0  0  0  0  0  0  0  0  0  0  0  0
   -3.1450    1.0560    1.3780 C   0  0  0  0  0  0  0  0  0  0  0  0
   -1.7870    1.7970   -0.7960 O   0  0  0  0  0  0  0  0  0  0  0  0
   -2.3900    0.6470   -0.2200 S   0  0  0  0  0  0  0  0  0  0  0  0
   -3.2540   -0.1860   -0.9810 O   0  0  0  0  0  0  0  0  0  0  0  0
    1.1510   -1.9710   -0.2760 C   0  0  0  0  0  0  0  0  0  0  0  0
    1.2370   -0.4570   -0.4800 C   0  0  2  0  0  0  0  0  0  0  0  0
    2.6240    0.0200   -0.1320 C   0  0  0  0  0  0  0  0  0  0  0  0
    3.3190   -0.6330    0.6180 O   0  0  0  0  0  0  0  0  0  0  0  0
    3.0920    1.1710   -0.6530 N   0  0  0  0  0  0  0  0  0  0  0  0
    4.4400    1.6350   -0.3140 C   0  0  0  0  0  0  0  0  0  0  0  0
   -0.3000   -3.5420   -0.5380 H   0  0  0  0  0  0  0  0  0  0  0  0
   -0.4500   -2.2020   -1.7000 H   0  0  0  0  0  0  0  0  0  0  0  0
   -1.1390   -2.1210    1.2730 H   0  0  0  0  0  0  0  0  0  0  0  0
   -2.2870   -2.0590   -0.0880 H   0  0  0  0  0  0  0  0  0  0  0  0
    0.2040    1.3050    0.2150 H   0  0  0  0  0  0  0  0  0  0  0  0
    0.5940   -1.0640    2.1040 H   0  0  0  0  0  0  0  0  0  0  0  0
    1.5850    0.4140    2.0820 H   0  0  0  0  0  0  0  0  0  0  0  0
   -0.1330    0.5020    2.5370 H   0  0  0  0  0  0  0  0  0  0  0  0
   -4.0040    1.7060    1.2180 H   0  0  0  0  0  0  0  0  0  0  0  0
   -3.4690    0.1400    1.8720 H   0  0  0  0  0  0  0  0  0  0  0  0
   -2.4140    1.5670    2.0050 H   0  0  0  0  0  0  0  0  0  0  0  0
    1.3440   -2.2080    0.7700 H   0  0  0  0  0  0  0  0  0  0  0  0
    1.8940   -2.4640   -0.9030 H   0  0  0  0  0  0  0  0  0  0  0  0
    1.0210   -0.2170   -1.5210 H   0  0  0  0  0  0  0  0  0  0  0  0
    2.5360    1.6930   -1.2520 H   0  0  0  0  0  0  0  0  0  0  0  0
    4.6400    2.5760   -0.8270 H   0  0  0  0  0  0  0  0  0  0  0  0
    4.5130    1.7850    0.7630 H   0  0  0  0  0  0  0  0  0  0  0  0
    5.1700    0.8880   -0.6270 H   0  0  0  0  0  0  0  0  0  0  0  0
  4  5  1  0  0  0  0
  7  8  2  0  0  0  0
  1  3  1  0  0  0  0
  2  3  1  0  0  0  0
  1  8  1  0  0  0  0
  8  9  2  0  0  0  0
  6  8  1  0  0  0  0
  1  4  1  0  0  0  0
  4 11  1  0  0  0  0
 12 13  2  0  0  0  0
  2 10  1  0  0  0  0
 10 11  1  0  0  0  0
 11 12  1  0  0  0  0
 12 14  1  0  0  0  0
 14 15  1  0  0  0  0
  2 16  1  0  0  0  0
  2 17  1  0  0  0  0
  3 18  1  0  0  0  0
  3 19  1  0  0  0  0
  4 20  1  0  0  0  0
  5 21  1  0  0  0  0
  5 22  1  0  0  0  0
  5 23  1  0  0  0  0
  6 24  1  0  0  0  0
  6 25  1  0  0  0  0
  6 26  1  0  0  0  0
 10 27  1  0  0  0  0
 10 28  1  0  0  0  0
 11 29  1  0  0  0  0
 14 30  1  0  0  0  0
 15 31  1  0  0  0  0
 15 32  1  0  0  0  0
 15 33  1  0  0  0  0
M  END
> <OPENEYE_ISO_SMILES>
C[C@H]1[C@H](CCCN1S(=O)(=O)C)C(=O)NC

> <OPENEYE_INCHI>
InChI=1S/C9H18N2O3S/c1-7-8(9(12)10-2)5-4-6-11(7)15(3,13)14/h7-8H,4-6H2,1-3H3,(H,10,12)/t7-,8-/m0/s1

> <OPENEYE_INCHIKEY>
CPUIXPUDABQXEN-YUMQZZPRSA-N

> <FORMULA>
C9H18N2O3S

$$$$
