T67
  -OEChem-02242320043D

 37 39  0     0  0  0  0  0  0999 V2000
   -4.7770   -0.2580   -0.1200 N   0  0  0  0  0  0  0  0  0  0  0  0
    3.2110    1.9690    0.3980 N   0  0  0  0  0  0  0  0  0  0  0  0
   -2.6290   -0.2850   -1.2960 C   0  0  0  0  0  0  0  0  0  0  0  0
   -3.9620    0.4500   -1.1160 C   0  0  0  0  0  0  0  0  0  0  0  0
   -0.7230   -0.0660    0.2310 C   0  0  0  0  0  0  0  0  0  0  0  0
    0.0810    0.5240   -0.8990 C   0  0  0  0  0  0  0  0  0  0  0  0
    1.4670    0.8570   -0.4090 C   0  0  0  0  0  0  0  0  0  0  0  0
    3.6780    0.6930    0.1920 C   0  0  0  0  0  0  0  0  0  0  0  0
    2.7980   -1.4080   -0.6320 C   0  0  0  0  0  0  0  0  0  0  0  0
   -6.1290    0.3130   -0.0430 C   0  0  0  0  0  0  0  0  0  0  0  0
    5.0600   -1.1530    0.0990 C   0  0  0  0  0  0  0  0  0  0  0  0
    4.0490   -1.9530   -0.4110 C   0  0  0  0  0  0  0  0  0  0  0  0
    2.6050   -0.0600   -0.3220 C   0  0  0  0  0  0  0  0  0  0  0  0
   -4.1290   -0.2560    1.1980 C   0  0  0  0  0  0  0  0  0  0  0  0
   -2.8030   -1.0200    1.1130 C   0  0  0  0  0  0  0  0  0  0  0  0
    1.8910    2.0480    0.0410 C   0  0  0  0  0  0  0  0  0  0  0  0
   -2.0010   -0.4420    0.0240 N   0  0  0  0  0  0  0  0  0  0  0  0
    4.8580    0.1160    0.3810 N   0  0  0  0  0  0  0  0  0  0  0  0
   -0.2200   -0.2030    1.3260 O   0  0  0  0  0  0  0  0  0  0  0  0
    3.7370    2.7040    0.7490 H   0  0  0  0  0  0  0  0  0  0  0  0
   -2.8090   -1.2660   -1.7350 H   0  0  0  0  0  0  0  0  0  0  0  0
   -1.9770    0.2960   -1.9490 H   0  0  0  0  0  0  0  0  0  0  0  0
   -4.4940    0.4780   -2.0670 H   0  0  0  0  0  0  0  0  0  0  0  0
   -3.7730    1.4680   -0.7740 H   0  0  0  0  0  0  0  0  0  0  0  0
    0.1480   -0.1980   -1.7130 H   0  0  0  0  0  0  0  0  0  0  0  0
   -0.4050    1.4310   -1.2560 H   0  0  0  0  0  0  0  0  0  0  0  0
    1.9940   -2.0070   -1.0330 H   0  0  0  0  0  0  0  0  0  0  0  0
   -6.0690    1.3410    0.3150 H   0  0  0  0  0  0  0  0  0  0  0  0
   -6.5860    0.2990   -1.0330 H   0  0  0  0  0  0  0  0  0  0  0  0
   -6.7340   -0.2770    0.6450 H   0  0  0  0  0  0  0  0  0  0  0  0
    6.0360   -1.5820    0.2710 H   0  0  0  0  0  0  0  0  0  0  0  0
    4.2380   -2.9930   -0.6330 H   0  0  0  0  0  0  0  0  0  0  0  0
   -3.9380    0.7710    1.5080 H   0  0  0  0  0  0  0  0  0  0  0  0
   -4.7810   -0.7400    1.9250 H   0  0  0  0  0  0  0  0  0  0  0  0
   -2.2640   -0.9240    2.0560 H   0  0  0  0  0  0  0  0  0  0  0  0
   -2.9990   -2.0720    0.9050 H   0  0  0  0  0  0  0  0  0  0  0  0
    1.2840    2.9390    0.1050 H   0  0  0  0  0  0  0  0  0  0  0  0
  1 10  1  0  0  0  0
  1 14  1  0  0  0  0
 14 15  1  0  0  0  0
 15 17  1  0  0  0  0
  3 17  1  0  0  0  0
  3  4  1  0  0  0  0
  5 17  1  0  0  0  0
  5 19  2  0  0  0  0
  5  6  1  0  0  0  0
  6  7  1  0  0  0  0
  7 16  2  0  0  0  0
  2 16  1  0  0  0  0
  2  8  1  0  0  0  0
  8 18  2  0  0  0  0
 11 18  1  0  0  0  0
 11 12  2  0  0  0  0
  9 12  1  0  0  0  0
  9 13  2  0  0  0  0
  1  4  1  0  0  0  0
  7 13  1  0  0  0  0
  8 13  1  0  0  0  0
  2 20  1  0  0  0  0
  3 21  1  0  0  0  0
  3 22  1  0  0  0  0
  4 23  1  0  0  0  0
  4 24  1  0  0  0  0
  6 25  1  0  0  0  0
  6 26  1  0  0  0  0
  9 27  1  0  0  0  0
 10 28  1  0  0  0  0
 10 29  1  0  0  0  0
 10 30  1  0  0  0  0
 11 31  1  0  0  0  0
 12 32  1  0  0  0  0
 14 33  1  0  0  0  0
 14 34  1  0  0  0  0
 15 35  1  0  0  0  0
 15 36  1  0  0  0  0
 16 37  1  0  0  0  0
M  END
> <OPENEYE_ISO_SMILES>
CN1CCN(CC1)C(=O)Cc2c[nH]c3c2cccn3

> <OPENEYE_INCHI>
InChI=1S/C14H18N4O/c1-17-5-7-18(8-6-17)13(19)9-11-10-16-14-12(11)3-2-4-15-14/h2-4,10H,5-9H2,1H3,(H,15,16)

> <OPENEYE_INCHIKEY>
XAAUHRXDRLNFFL-UHFFFAOYSA-N

> <FORMULA>
C14H18N4O

$$$$
