PG0
  -OEChem-02242320033D

 20 19  0     0  0  0  0  0  0999 V2000
    3.5510   -0.8820   -0.0830 C   0  0  0  0  0  0  0  0  0  0  0  0
    2.3170   -0.2930   -0.4960 O   0  0  0  0  0  0  0  0  0  0  0  0
    1.8320    0.4700    0.6100 C   0  0  0  0  0  0  0  0  0  0  0  0
    0.5050    1.1310    0.2320 C   0  0  0  0  0  0  0  0  0  0  0  0
   -0.4820    0.1220    0.0070 O   0  0  0  0  0  0  0  0  0  0  0  0
   -1.6920    0.7990   -0.3410 C   0  0  0  0  0  0  0  0  0  0  0  0
   -2.7960   -0.2290   -0.5970 C   0  0  0  0  0  0  0  0  0  0  0  0
   -3.0880   -0.9260    0.6160 O   0  0  0  0  0  0  0  0  0  0  0  0
    4.2580   -0.0960    0.1840 H   0  0  0  0  0  0  0  0  0  0  0  0
    3.3770   -1.5220    0.7820 H   0  0  0  0  0  0  0  0  0  0  0  0
    3.9610   -1.4770   -0.8980 H   0  0  0  0  0  0  0  0  0  0  0  0
    1.6790   -0.1880    1.4660 H   0  0  0  0  0  0  0  0  0  0  0  0
    2.5600    1.2390    0.8680 H   0  0  0  0  0  0  0  0  0  0  0  0
    0.1800    1.7830    1.0420 H   0  0  0  0  0  0  0  0  0  0  0  0
    0.6380    1.7180   -0.6770 H   0  0  0  0  0  0  0  0  0  0  0  0
   -1.9890    1.4550    0.4770 H   0  0  0  0  0  0  0  0  0  0  0  0
   -1.5310    1.3910   -1.2420 H   0  0  0  0  0  0  0  0  0  0  0  0
   -3.6930    0.2800   -0.9480 H   0  0  0  0  0  0  0  0  0  0  0  0
   -2.4620   -0.9400   -1.3530 H   0  0  0  0  0  0  0  0  0  0  0  0
   -3.7860   -1.5630    0.4120 H   0  0  0  0  0  0  0  0  0  0  0  0
  1  2  1  0  0  0  0
  1  9  1  0  0  0  0
  1 10  1  0  0  0  0
  1 11  1  0  0  0  0
  2  3  1  0  0  0  0
  3  4  1  0  0  0  0
  3 12  1  0  0  0  0
  3 13  1  0  0  0  0
  4  5  1  0  0  0  0
  4 14  1  0  0  0  0
  4 15  1  0  0  0  0
  5  6  1  0  0  0  0
  6  7  1  0  0  0  0
  6 16  1  0  0  0  0
  6 17  1  0  0  0  0
  7  8  1  0  0  0  0
  7 18  1  0  0  0  0
  7 19  1  0  0  0  0
  8 20  1  0  0  0  0
M  END
> <OPENEYE_ISO_SMILES>
COCCOCCO

> <OPENEYE_INCHI>
InChI=1S/C5H12O3/c1-7-4-5-8-3-2-6/h6H,2-5H2,1H3

> <OPENEYE_INCHIKEY>
SBASXUCJHJRPEV-UHFFFAOYSA-N

> <FORMULA>
C5H12O3

$$$$
