YSP
  -OEChem-02242320043D

 58 62  0     0  0  0  0  0  0999 V2000
   -3.4240   -1.0090    0.1880 C   0  0  0  0  0  0  0  0  0  0  0  0
   -2.5620   -4.1160    0.5700 C   0  0  0  0  0  0  0  0  0  0  0  0
   -1.2290   -1.3960   -0.5730 C   0  0  0  0  0  0  0  0  0  0  0  0
   -2.7610   -3.2030   -0.4630 C   0  0  0  0  0  0  0  0  0  0  0  0
   -3.3720   -5.8210   -0.8920 C   0  0  0  0  0  0  0  0  0  0  0  0
   -2.8720   -5.4460    0.3420 C   0  0  0  0  0  0  0  0  0  0  0  0
   -4.6720    2.3840    0.1170 C   0  0  0  0  0  0  0  0  0  0  0  0
   -4.7890    1.0060    2.1170 C   0  0  0  0  0  0  0  0  0  0  0  0
    1.5470    0.0300    0.0170 C   0  0  0  0  0  0  0  0  0  0  0  0
    2.8140    0.4970   -0.2910 C   0  0  0  0  0  0  0  0  0  0  0  0
    7.9310    1.3460   -0.3080 C   0  0  0  0  0  0  0  0  0  0  0  0
    8.5250   -0.1660    1.5970 C   0  0  0  0  0  0  0  0  0  0  0  0
    8.1760   -1.0570    2.5930 C   0  0  0  0  0  0  0  0  0  0  0  0
    7.5510    0.3690    0.7750 C   0  0  0  0  0  0  0  0  0  0  0  0
    6.8520   -1.4140    2.7680 C   0  0  0  0  0  0  0  0  0  0  0  0
    5.8770   -0.8790    1.9470 C   0  0  0  0  0  0  0  0  0  0  0  0
    2.9870    1.4030   -1.3290 C   0  0  0  0  0  0  0  0  0  0  0  0
    1.8970    1.8420   -2.0590 C   0  0  0  0  0  0  0  0  0  0  0  0
    0.6300    1.3810   -1.7580 C   0  0  0  0  0  0  0  0  0  0  0  0
   -6.1620    2.9090    1.8390 C   0  0  0  0  0  0  0  0  0  0  0  0
   -1.8780    0.8340    0.0870 C   0  0  0  0  0  0  0  0  0  0  0  0
   -0.9090   -0.0290   -0.3960 C   0  0  0  0  0  0  0  0  0  0  0  0
    0.4480    0.4710   -0.7170 C   0  0  0  0  0  0  0  0  0  0  0  0
    5.1650    0.5920    0.0500 C   0  0  0  0  0  0  0  0  0  0  0  0
    6.2280    0.0090    0.9460 C   0  0  0  0  0  0  0  0  0  0  0  0
   -3.2610   -3.6580   -1.6760 C   0  0  0  0  0  0  0  0  0  0  0  0
   -3.1580    0.3260    0.3830 C   0  0  0  0  0  0  0  0  0  0  0  0
   -4.2160    1.2290    0.9020 C   0  0  0  0  0  0  0  0  0  0  0  0
   -2.4630   -1.8470   -0.2810 N   0  0  0  0  0  0  0  0  0  0  0  0
   -3.5440   -4.9330   -1.8510 N   0  0  0  0  0  0  0  0  0  0  0  0
   -5.6330    3.1780    0.6320 N   0  0  0  0  0  0  0  0  0  0  0  0
   -5.7620    1.8550    2.5680 N   0  0  0  0  0  0  0  0  0  0  0  0
   -0.3830   -2.1690   -0.9930 O   0  0  0  0  0  0  0  0  0  0  0  0
   -4.1880    2.6220   -0.9740 O   0  0  0  0  0  0  0  0  0  0  0  0
   -7.0270    3.6400    2.2820 O   0  0  0  0  0  0  0  0  0  0  0  0
    3.8880    0.0690    0.4230 O   0  0  0  0  0  0  0  0  0  0  0  0
    2.1220    2.9740   -3.3550 Cl  0  0  0  0  0  0  0  0  0  0  0  0
   -4.4060   -1.3970    0.4160 H   0  0  0  0  0  0  0  0  0  0  0  0
   -2.1700   -3.7950    1.5240 H   0  0  0  0  0  0  0  0  0  0  0  0
   -3.6150   -6.8570   -1.0750 H   0  0  0  0  0  0  0  0  0  0  0  0
   -2.7250   -6.1830    1.1180 H   0  0  0  0  0  0  0  0  0  0  0  0
   -4.4780    0.1660    2.7200 H   0  0  0  0  0  0  0  0  0  0  0  0
    1.4120   -0.6780    0.8210 H   0  0  0  0  0  0  0  0  0  0  0  0
    8.1500    0.8030   -1.2270 H   0  0  0  0  0  0  0  0  0  0  0  0
    7.1050    2.0360   -0.4820 H   0  0  0  0  0  0  0  0  0  0  0  0
    8.8130    1.9060    0.0020 H   0  0  0  0  0  0  0  0  0  0  0  0
    9.5590    0.1160    1.4630 H   0  0  0  0  0  0  0  0  0  0  0  0
    8.9370   -1.4750    3.2350 H   0  0  0  0  0  0  0  0  0  0  0  0
    6.5780   -2.1110    3.5470 H   0  0  0  0  0  0  0  0  0  0  0  0
    4.8430   -1.1570    2.0840 H   0  0  0  0  0  0  0  0  0  0  0  0
    3.9760    1.7660   -1.5670 H   0  0  0  0  0  0  0  0  0  0  0  0
   -0.2200    1.7260   -2.3290 H   0  0  0  0  0  0  0  0  0  0  0  0
   -1.6550    1.8810    0.2350 H   0  0  0  0  0  0  0  0  0  0  0  0
    5.1580    1.6770    0.1540 H   0  0  0  0  0  0  0  0  0  0  0  0
    5.3780    0.3280   -0.9850 H   0  0  0  0  0  0  0  0  0  0  0  0
   -3.4200   -2.9590   -2.4840 H   0  0  0  0  0  0  0  0  0  0  0  0
   -5.9440    3.9480    0.1300 H   0  0  0  0  0  0  0  0  0  0  0  0
   -6.1690    1.6940    3.4340 H   0  0  0  0  0  0  0  0  0  0  0  0
 12 13  2  0  0  0  0
 13 15  1  0  0  0  0
 12 14  1  0  0  0  0
 15 16  2  0  0  0  0
 11 14  1  0  0  0  0
 14 25  2  0  0  0  0
 16 25  1  0  0  0  0
 24 25  1  0  0  0  0
 24 36  1  0  0  0  0
 10 36  1  0  0  0  0
 10 17  2  0  0  0  0
 17 18  1  0  0  0  0
  9 10  1  0  0  0  0
 18 37  1  0  0  0  0
 18 19  2  0  0  0  0
  9 23  2  0  0  0  0
 19 23  1  0  0  0  0
 22 23  1  0  0  0  0
  3 33  2  0  0  0  0
  3 22  1  0  0  0  0
 21 22  2  0  0  0  0
  3 29  1  0  0  0  0
 21 27  1  0  0  0  0
  4 29  1  0  0  0  0
  1 29  1  0  0  0  0
  4 26  2  0  0  0  0
 26 30  1  0  0  0  0
  2  4  1  0  0  0  0
  1 27  2  0  0  0  0
 27 28  1  0  0  0  0
  5 30  2  0  0  0  0
  2  6  2  0  0  0  0
  5  6  1  0  0  0  0
  8 28  2  0  0  0  0
  8 32  1  0  0  0  0
  7 28  1  0  0  0  0
 20 32  1  0  0  0  0
  7 34  2  0  0  0  0
  7 31  1  0  0  0  0
 20 31  1  0  0  0  0
 20 35  2  0  0  0  0
  1 38  1  0  0  0  0
  2 39  1  0  0  0  0
  5 40  1  0  0  0  0
  6 41  1  0  0  0  0
  8 42  1  0  0  0  0
  9 43  1  0  0  0  0
 11 44  1  0  0  0  0
 11 45  1  0  0  0  0
 11 46  1  0  0  0  0
 12 47  1  0  0  0  0
 13 48  1  0  0  0  0
 15 49  1  0  0  0  0
 16 50  1  0  0  0  0
 17 51  1  0  0  0  0
 19 52  1  0  0  0  0
 21 53  1  0  0  0  0
 24 54  1  0  0  0  0
 24 55  1  0  0  0  0
 26 56  1  0  0  0  0
 31 57  1  0  0  0  0
 32 58  1  0  0  0  0
M  END
> <OPENEYE_ISO_SMILES>
Cc1ccccc1COc2cc(cc(c2)Cl)c3cc(cn(c3=O)c4cccnc4)c5c[nH]c(=O)[nH]c5=O

> <OPENEYE_INCHI>
InChI=1S/C28H21ClN4O4/c1-17-5-2-3-6-18(17)16-37-23-10-19(9-21(29)12-23)24-11-20(25-14-31-28(36)32-26(25)34)15-33(27(24)35)22-7-4-8-30-13-22/h2-15H,16H2,1H3,(H2,31,32,34,36)

> <OPENEYE_INCHIKEY>
CXKRCAINPQDWER-UHFFFAOYSA-N

> <FORMULA>
C28H21ClN4O4

$$$$
