@<TRIPOS>MOLECULE
/home/pku/3cl/gett_pdb/5RUT/5RUT_mol2/ligand/5RUT_APG.pdb
 21 21 0 0 0
SMALL
GASTEIGER

@<TRIPOS>ATOM
      1  C1       -46.4310  -33.2490    0.3560 C.ar  201  APG201     -0.0614
      2  C2       -46.3840  -32.0820    1.1550 C.ar  201  APG201     -0.0555
      3  C3       -45.3080  -31.2640    1.1500 C.ar  201  APG201     -0.0109
      4  C4       -44.2470  -31.5510    0.3560 C.ar  201  APG201     -0.0555
      5  C5       -44.2750  -32.6750   -0.4640 C.ar  201  APG201     -0.0614
      6  C6       -45.3640  -33.5250   -0.4570 C.ar  201  APG201     -0.0617
      7  C12      -45.2570  -30.0300    2.0600 C.3   201  APG201      0.1270
      8  O17      -45.2430  -28.8800    1.3270 O.3   201  APG201     -0.3784
      9  C13      -44.0560  -30.0960    2.9780 C.2   201  APG201      0.0773
     10  C14      -46.4070  -29.8110    3.0200 C.3   201  APG201     -0.0265
     11  O14      -43.4160  -29.0720    3.2890 O.co2 201  APG201     -0.5465
     12  O15      -43.6480  -31.1450    3.4700 O.co2 201  APG201     -0.5465
     13  H1       -47.1800  -33.8000    0.3610 H     201  APG201      0.0618
     14  H2       -47.0990  -31.8910    1.7180 H     201  APG201      0.0621
     15  H4       -43.5070  -30.9880    0.3480 H     201  APG201      0.0621
     16  H5       -43.5460  -32.8650   -1.0090 H     201  APG201      0.0618
     17  H6       -45.3770  -34.2740   -1.0080 H     201  APG201      0.0618
     18 HO17      -44.4430  -28.6900    1.1130 H     201  APG201      0.2111
     19 H141      -46.2010  -29.0660    3.6060 H     201  APG201      0.0264
     20 H142      -46.5440  -30.6110    3.5500 H     201  APG201      0.0264
     21 H143      -47.2130  -29.6140    2.5180 H     201  APG201      0.0264
@<TRIPOS>UNITY_ATOM_ATTR
12 1
charge -1
@<TRIPOS>BOND
     1    16     5    1
     2    17     6    1
     3     5     6   ar
     4     5     4   ar
     5     6     1   ar
     6    15     4    1
     7     4     3   ar
     8     1    13    1
     9     1     2   ar
    10    18     8    1
    11     3     2   ar
    12     3     7    1
    13     2    14    1
    14     8     7    1
    15     7     9    1
    16     7    10    1
    17    21    10    1
    18     9    11   ar
    19     9    12   ar
    20    10    20    1
    21    10    19    1
