ZQJ
  -OEChem-02242320043D

 23 24  0     0  0  0  0  0  0999 V2000
    0.5540    1.4400    0.0460 C   0  0  0  0  0  0  0  0  0  0  0  0
    3.0190   -1.3490   -0.0350 C   0  0  0  0  0  0  0  0  0  0  0  0
    1.7520   -0.6130   -0.0200 N   0  0  0  0  0  0  0  0  0  0  0  0
    0.6500   -1.2670   -0.0490 N   0  0  0  0  0  0  0  0  0  0  0  0
   -0.5210   -0.6820   -0.0300 C   0  0  0  0  0  0  0  0  0  0  0  0
   -1.7630   -1.5350   -0.0730 C   0  0  0  0  0  0  0  0  0  0  0  0
   -2.9720   -0.7150    0.3790 C   0  0  0  0  0  0  0  0  0  0  0  0
   -3.0010    0.5430   -0.3840 N   0  0  0  0  0  0  0  0  0  0  0  0
   -1.9240    1.4350    0.0380 C   0  0  0  0  0  0  0  0  0  0  0  0
   -0.6040    0.7150    0.0170 C   0  0  0  0  0  0  0  0  0  0  0  0
    1.7750    0.7330    0.0240 C   0  0  0  0  0  0  0  0  0  0  0  0
    2.8380    1.3330    0.0450 O   0  0  0  0  0  0  0  0  0  0  0  0
    0.5360    2.5200    0.0790 H   0  0  0  0  0  0  0  0  0  0  0  0
    2.8170   -2.4190   -0.0710 H   0  0  0  0  0  0  0  0  0  0  0  0
    3.5970   -1.0590   -0.9120 H   0  0  0  0  0  0  0  0  0  0  0  0
    3.5850   -1.1160    0.8670 H   0  0  0  0  0  0  0  0  0  0  0  0
   -1.9240   -1.8880   -1.0920 H   0  0  0  0  0  0  0  0  0  0  0  0
   -1.6370   -2.3910    0.5900 H   0  0  0  0  0  0  0  0  0  0  0  0
   -3.8860   -1.2780    0.1910 H   0  0  0  0  0  0  0  0  0  0  0  0
   -2.8880   -0.4980    1.4440 H   0  0  0  0  0  0  0  0  0  0  0  0
   -3.9000    0.9930   -0.3020 H   0  0  0  0  0  0  0  0  0  0  0  0
   -1.8890    2.2980   -0.6270 H   0  0  0  0  0  0  0  0  0  0  0  0
   -2.1130    1.7730    1.0570 H   0  0  0  0  0  0  0  0  0  0  0  0
 11 12  2  0  0  0  0
  1 11  1  0  0  0  0
  3 11  1  0  0  0  0
  2  3  1  0  0  0  0
  1 10  2  0  0  0  0
  3  4  1  0  0  0  0
  9 10  1  0  0  0  0
  5 10  1  0  0  0  0
  4  5  2  0  0  0  0
  8  9  1  0  0  0  0
  5  6  1  0  0  0  0
  7  8  1  0  0  0  0
  6  7  1  0  0  0  0
  1 13  1  0  0  0  0
  2 14  1  0  0  0  0
  2 15  1  0  0  0  0
  2 16  1  0  0  0  0
  6 17  1  0  0  0  0
  6 18  1  0  0  0  0
  7 19  1  0  0  0  0
  7 20  1  0  0  0  0
  8 21  1  0  0  0  0
  9 22  1  0  0  0  0
  9 23  1  0  0  0  0
M  END
> <OPENEYE_ISO_SMILES>
Cn1c(=O)cc2c(n1)CCNC2

> <OPENEYE_INCHI>
InChI=1S/C8H11N3O/c1-11-8(12)4-6-5-9-3-2-7(6)10-11/h4,9H,2-3,5H2,1H3

> <OPENEYE_INCHIKEY>
VQKHNWPVBIRRNP-UHFFFAOYSA-N

> <FORMULA>
C8H11N3O

$$$$
