S6U
  -OEChem-02242320043D

 32 34  0     0  0  0  0  0  0999 V2000
    4.8780    1.0610    0.8190 C   0  0  0  0  0  0  0  0  0  0  0  0
    3.8270   -0.8090    0.1640 C   0  0  0  0  0  0  0  0  0  0  0  0
    2.1740   -2.2350   -0.5510 C   0  0  0  0  0  0  0  0  0  0  0  0
    1.5720   -0.0280   -0.2570 C   0  0  0  0  0  0  0  0  0  0  0  0
   -3.3380   -0.9300   -0.1640 C   0  0  0  0  0  0  0  0  0  0  0  0
    2.8900    0.2520    0.1370 C   0  0  0  0  0  0  0  0  0  0  0  0
    3.6110    1.4410    0.5710 C   0  0  0  0  0  0  0  0  0  0  0  0
    0.5500    1.0420   -0.3040 C   0  0  0  0  0  0  0  0  0  0  0  0
   -1.6590    1.8520   -0.7080 C   0  0  0  0  0  0  0  0  0  0  0  0
   -3.0260    1.3350   -1.1620 C   0  0  0  0  0  0  0  0  0  0  0  0
   -4.3830    0.7470    0.9890 C   0  0  0  0  0  0  0  0  0  0  0  0
   -4.6410   -0.6050    1.6830 C   0  0  0  0  0  0  0  0  0  0  0  0
   -3.5460    0.3940   -0.1670 N   0  0  0  0  0  0  0  0  0  0  0  0
    1.2650   -1.2830   -0.5830 N   0  0  0  0  0  0  0  0  0  0  0  0
    3.4230   -2.0200   -0.1900 N   0  0  0  0  0  0  0  0  0  0  0  0
    5.0200   -0.2780    0.5770 N   0  0  0  0  0  0  0  0  0  0  0  0
    0.8470    2.1790    0.0000 O   0  0  0  0  0  0  0  0  0  0  0  0
   -0.7090    0.7530   -0.6850 O   0  0  0  0  0  0  0  0  0  0  0  0
   -3.9300   -1.5680    0.8530 O   0  0  0  0  0  0  0  0  0  0  0  0
   -2.6770   -1.5000   -1.0090 O   0  0  0  0  0  0  0  0  0  0  0  0
    5.6670    1.7180    1.1550 H   0  0  0  0  0  0  0  0  0  0  0  0
    1.8830   -3.2360   -0.8330 H   0  0  0  0  0  0  0  0  0  0  0  0
    3.2070    2.4370    0.6750 H   0  0  0  0  0  0  0  0  0  0  0  0
   -1.3110    2.6180   -1.4010 H   0  0  0  0  0  0  0  0  0  0  0  0
   -1.7450    2.2790    0.2910 H   0  0  0  0  0  0  0  0  0  0  0  0
   -3.7150    2.1730   -1.2650 H   0  0  0  0  0  0  0  0  0  0  0  0
   -2.9220    0.8290   -2.1220 H   0  0  0  0  0  0  0  0  0  0  0  0
   -5.3230    1.1910    0.6610 H   0  0  0  0  0  0  0  0  0  0  0  0
   -3.8500    1.4260    1.6550 H   0  0  0  0  0  0  0  0  0  0  0  0
   -4.2350   -0.5990    2.6940 H   0  0  0  0  0  0  0  0  0  0  0  0
   -5.7080   -0.8290    1.6990 H   0  0  0  0  0  0  0  0  0  0  0  0
    5.8450   -0.7780    0.6810 H   0  0  0  0  0  0  0  0  0  0  0  0
 11 13  1  0  0  0  0
 11 12  1  0  0  0  0
  9 10  1  0  0  0  0
 10 13  1  0  0  0  0
  9 18  1  0  0  0  0
  5 13  1  0  0  0  0
 12 19  1  0  0  0  0
  8 17  2  0  0  0  0
  5 19  1  0  0  0  0
  5 20  2  0  0  0  0
  8 18  1  0  0  0  0
  4  8  1  0  0  0  0
  4  6  2  0  0  0  0
  4 14  1  0  0  0  0
  6  7  1  0  0  0  0
  1  7  2  0  0  0  0
  2  6  1  0  0  0  0
  3 14  2  0  0  0  0
  1 16  1  0  0  0  0
  2 16  1  0  0  0  0
  2 15  2  0  0  0  0
  3 15  1  0  0  0  0
  1 21  1  0  0  0  0
  3 22  1  0  0  0  0
  7 23  1  0  0  0  0
  9 24  1  0  0  0  0
  9 25  1  0  0  0  0
 10 26  1  0  0  0  0
 10 27  1  0  0  0  0
 11 28  1  0  0  0  0
 11 29  1  0  0  0  0
 12 30  1  0  0  0  0
 12 31  1  0  0  0  0
 16 32  1  0  0  0  0
M  END
> <OPENEYE_ISO_SMILES>
c1c[nH]c2c1c(ncn2)C(=O)OCCN3CCOC3=O

> <OPENEYE_INCHI>
InChI=1S/C12H12N4O4/c17-11(19-5-3-16-4-6-20-12(16)18)9-8-1-2-13-10(8)15-7-14-9/h1-2,7H,3-6H2,(H,13,14,15)

> <OPENEYE_INCHIKEY>
RHERHAVCXHCXQJ-UHFFFAOYSA-N

> <FORMULA>
C12H12N4O4

$$$$
