UXG
  -OEChem-02242320043D

 35 37  0     0  0  0  0  0  0999 V2000
   -0.2550    1.3270   -0.2240 C   0  0  0  0  0  0  0  0  0  0  0  0
   -0.3410    1.8290    1.0610 C   0  0  0  0  0  0  0  0  0  0  0  0
   -0.4070    3.1940    1.2670 C   0  0  0  0  0  0  0  0  0  0  0  0
   -0.3860    4.0580    0.1880 C   0  0  0  0  0  0  0  0  0  0  0  0
   -0.2990    3.5570   -1.0970 C   0  0  0  0  0  0  0  0  0  0  0  0
    1.2190   -0.6440   -0.2130 C   0  0  0  0  0  0  0  0  0  0  0  0
    3.7980   -1.5390    0.2200 C   0  0  0  0  0  0  0  0  0  0  0  0
    1.6970   -0.7750    1.0770 C   0  0  0  0  0  0  0  0  0  0  0  0
   -1.1020   -0.8380    0.4830 N   0  0  0  0  0  0  0  0  0  0  0  0
   -2.7760   -2.0410    0.4170 C   0  0  0  0  0  0  0  0  0  0  0  0
   -3.6530   -2.6510   -0.5310 O   0  0  0  0  0  0  0  0  0  0  0  0
   -2.5130   -0.5480    0.1470 C   0  0  0  0  0  0  0  0  0  0  0  0
    2.0300   -0.9600   -1.2870 C   0  0  0  0  0  0  0  0  0  0  0  0
    3.3190   -1.4080   -1.0710 C   0  0  0  0  0  0  0  0  0  0  0  0
    2.9870   -1.2230    1.2930 C   0  0  0  0  0  0  0  0  0  0  0  0
   -1.2830   -2.2580    0.1090 C   0  0  0  0  0  0  0  0  0  0  0  0
   -0.1900   -0.1610   -0.4490 C   0  0  0  0  0  0  0  0  0  0  0  0
   -0.2350    2.1910   -1.3030 C   0  0  0  0  0  0  0  0  0  0  0  0
   -0.3570    1.1540    1.9040 H   0  0  0  0  0  0  0  0  0  0  0  0
   -0.4740    3.5860    2.2710 H   0  0  0  0  0  0  0  0  0  0  0  0
   -0.4380    5.1250    0.3490 H   0  0  0  0  0  0  0  0  0  0  0  0
   -0.2830    4.2320   -1.9400 H   0  0  0  0  0  0  0  0  0  0  0  0
    4.8060   -1.8890    0.3890 H   0  0  0  0  0  0  0  0  0  0  0  0
    1.0630   -0.5280    1.9160 H   0  0  0  0  0  0  0  0  0  0  0  0
   -3.0470   -2.2590    1.4500 H   0  0  0  0  0  0  0  0  0  0  0  0
   -4.5920   -2.5170   -0.3420 H   0  0  0  0  0  0  0  0  0  0  0  0
   -3.0050    0.1190    0.8550 H   0  0  0  0  0  0  0  0  0  0  0  0
   -2.6670   -0.2560   -0.8920 H   0  0  0  0  0  0  0  0  0  0  0  0
    1.6560   -0.8570   -2.2950 H   0  0  0  0  0  0  0  0  0  0  0  0
    3.9530   -1.6550   -1.9100 H   0  0  0  0  0  0  0  0  0  0  0  0
    3.3610   -1.3260    2.3010 H   0  0  0  0  0  0  0  0  0  0  0  0
   -1.0770   -2.4660   -0.9400 H   0  0  0  0  0  0  0  0  0  0  0  0
   -0.7920   -2.9560    0.7870 H   0  0  0  0  0  0  0  0  0  0  0  0
   -0.4840   -0.3870   -1.4740 H   0  0  0  0  0  0  0  0  0  0  0  0
   -0.1670    1.7990   -2.3070 H   0  0  0  0  0  0  0  0  0  0  0  0
 10 11  1  0  0  0  0
 10 16  1  0  0  0  0
 10 12  1  0  0  0  0
  9 16  1  0  0  0  0
  9 12  1  0  0  0  0
  9 17  1  0  0  0  0
  1 17  1  0  0  0  0
  6 17  1  0  0  0  0
  1  2  2  0  0  0  0
  2  3  1  0  0  0  0
  1 18  1  0  0  0  0
  3  4  2  0  0  0  0
  5 18  2  0  0  0  0
  6 13  2  0  0  0  0
  6  8  1  0  0  0  0
  4  5  1  0  0  0  0
 13 14  1  0  0  0  0
  8 15  2  0  0  0  0
  7 14  2  0  0  0  0
  7 15  1  0  0  0  0
  2 19  1  0  0  0  0
  3 20  1  0  0  0  0
  4 21  1  0  0  0  0
  5 22  1  0  0  0  0
  7 23  1  0  0  0  0
  8 24  1  0  0  0  0
 10 25  1  0  0  0  0
 11 26  1  0  0  0  0
 12 27  1  0  0  0  0
 12 28  1  0  0  0  0
 13 29  1  0  0  0  0
 14 30  1  0  0  0  0
 15 31  1  0  0  0  0
 16 32  1  0  0  0  0
 16 33  1  0  0  0  0
 17 34  1  0  0  0  0
 18 35  1  0  0  0  0
M  END
> <OPENEYE_ISO_SMILES>
c1ccc(cc1)C(c2ccccc2)N3CC(C3)O

> <OPENEYE_INCHI>
InChI=1S/C16H17NO/c18-15-11-17(12-15)16(13-7-3-1-4-8-13)14-9-5-2-6-10-14/h1-10,15-16,18H,11-12H2

> <OPENEYE_INCHIKEY>
MMAJXKGUZYDTHV-UHFFFAOYSA-N

> <FORMULA>
C16H17NO

$$$$
