S3R
  -OEChem-02242320043D

 33 35  0     0  0  0  0  0  0999 V2000
   -2.3250    1.7330   -0.7000 C   0  0  0  0  0  0  0  0  0  0  0  0
   -4.2510    0.5090   -0.4720 C   0  0  0  0  0  0  0  0  0  0  0  0
   -3.5450   -0.4960    0.1580 C   0  0  0  0  0  0  0  0  0  0  0  0
   -1.6070    0.7110   -0.0650 C   0  0  0  0  0  0  0  0  0  0  0  0
    0.5130   -0.2320    0.7950 C   0  0  0  0  0  0  0  0  0  0  0  0
    5.4280    0.3710   -0.2060 C   0  0  0  0  0  0  0  0  0  0  0  0
    4.0740    0.4090    0.4540 C   0  0  0  0  0  0  0  0  0  0  0  0
    1.9680    0.1510    0.8830 C   0  0  0  0  0  0  0  0  0  0  0  0
    2.7530   -0.8180   -1.3110 C   0  0  0  0  0  0  0  0  0  0  0  0
    2.3320   -2.2880   -1.2510 C   0  0  0  0  0  0  0  0  0  0  0  0
    3.7620   -1.9160   -1.6520 C   0  0  0  0  0  0  0  0  0  0  0  0
    3.7900    0.9550    1.6050 N   0  0  0  0  0  0  0  0  0  0  0  0
    2.5390    0.8020    1.8600 N   0  0  0  0  0  0  0  0  0  0  0  0
    2.9250   -0.1120   -0.0390 N   0  0  0  0  0  0  0  0  0  0  0  0
   -0.2350    0.8390    0.1320 N   0  0  0  0  0  0  0  0  0  0  0  0
   -2.2390   -0.3780    0.3460 N   0  0  0  0  0  0  0  0  0  0  0  0
   -3.6290    1.6040   -0.8830 N   0  0  0  0  0  0  0  0  0  0  0  0
   -1.6690    2.8840   -1.1310 N   0  0  0  0  0  0  0  0  0  0  0  0
   -4.3700   -1.9280    0.6920 Cl  0  0  0  0  0  0  0  0  0  0  0  0
   -5.3150    0.4060   -0.6230 H   0  0  0  0  0  0  0  0  0  0  0  0
    0.4140   -1.1540    0.2210 H   0  0  0  0  0  0  0  0  0  0  0  0
    0.1160   -0.3850    1.7990 H   0  0  0  0  0  0  0  0  0  0  0  0
    5.9230   -0.5700    0.0350 H   0  0  0  0  0  0  0  0  0  0  0  0
    5.3080    0.4530   -1.2860 H   0  0  0  0  0  0  0  0  0  0  0  0
    6.0330    1.2020    0.1570 H   0  0  0  0  0  0  0  0  0  0  0  0
    2.3660   -0.2170   -2.1340 H   0  0  0  0  0  0  0  0  0  0  0  0
    2.1840   -2.7300   -0.2660 H   0  0  0  0  0  0  0  0  0  0  0  0
    1.6690   -2.6540   -2.0350 H   0  0  0  0  0  0  0  0  0  0  0  0
    4.0390   -2.0380   -2.6990 H   0  0  0  0  0  0  0  0  0  0  0  0
    4.5540   -2.1130   -0.9290 H   0  0  0  0  0  0  0  0  0  0  0  0
    0.2260    1.6370   -0.1710 H   0  0  0  0  0  0  0  0  0  0  0  0
   -2.1680    3.5920   -1.5670 H   0  0  0  0  0  0  0  0  0  0  0  0
   -0.7130    2.9770   -0.9960 H   0  0  0  0  0  0  0  0  0  0  0  0
 10 11  1  0  0  0  0
  9 11  1  0  0  0  0
  9 10  1  0  0  0  0
  9 14  1  0  0  0  0
  6  7  1  0  0  0  0
  7 14  1  0  0  0  0
  8 14  1  0  0  0  0
  7 12  2  0  0  0  0
  5  8  1  0  0  0  0
  8 13  2  0  0  0  0
 12 13  1  0  0  0  0
  5 15  1  0  0  0  0
  4 15  1  0  0  0  0
  3 19  1  0  0  0  0
  4 16  2  0  0  0  0
  3 16  1  0  0  0  0
  1  4  1  0  0  0  0
  2  3  2  0  0  0  0
  1 17  2  0  0  0  0
  1 18  1  0  0  0  0
  2 17  1  0  0  0  0
  2 20  1  0  0  0  0
  5 21  1  0  0  0  0
  5 22  1  0  0  0  0
  6 23  1  0  0  0  0
  6 24  1  0  0  0  0
  6 25  1  0  0  0  0
  9 26  1  0  0  0  0
 10 27  1  0  0  0  0
 10 28  1  0  0  0  0
 11 29  1  0  0  0  0
 11 30  1  0  0  0  0
 15 31  1  0  0  0  0
 18 32  1  0  0  0  0
 18 33  1  0  0  0  0
M  END
> <OPENEYE_ISO_SMILES>
Cc1nnc(n1C2CC2)CNc3c(ncc(n3)Cl)N

> <OPENEYE_INCHI>
InChI=1S/C11H14ClN7/c1-6-17-18-9(19(6)7-2-3-7)5-15-11-10(13)14-4-8(12)16-11/h4,7H,2-3,5H2,1H3,(H2,13,14)(H,15,16)

> <OPENEYE_INCHIKEY>
DOFJBAVHDFWANZ-UHFFFAOYSA-N

> <FORMULA>
C11H14ClN7

$$$$
