T1J
  -OEChem-02242320043D

 31 33  0     0  0  0  0  0  0999 V2000
    0.9320    0.0020   -0.2950 C   0  0  0  0  0  0  0  0  0  0  0  0
    4.3090   -0.5700   -1.2630 C   0  0  0  0  0  0  0  0  0  0  0  0
    5.3470    0.3100    0.7140 C   0  0  0  0  0  0  0  0  0  0  0  0
    2.9590    0.3180    0.5390 C   0  0  0  0  0  0  0  0  0  0  0  0
   -3.3870   -0.8270    0.3780 C   0  0  0  0  0  0  0  0  0  0  0  0
   -4.7210   -0.9430    0.0180 C   0  0  0  0  0  0  0  0  0  0  0  0
   -5.3980    0.1520   -0.4830 C   0  0  0  0  0  0  0  0  0  0  0  0
   -4.7470    1.3630   -0.6260 C   0  0  0  0  0  0  0  0  0  0  0  0
   -3.4160    1.4810   -0.2670 C   0  0  0  0  0  0  0  0  0  0  0  0
   -2.7370    0.3910    0.2390 C   0  0  0  0  0  0  0  0  0  0  0  0
   -1.2880    0.5220    0.6350 C   0  0  0  0  0  0  0  0  0  0  0  0
    3.0520   -0.2770   -0.7300 C   0  0  0  0  0  0  0  0  0  0  0  0
    5.4440   -0.2760   -0.5390 C   0  0  0  0  0  0  0  0  0  0  0  0
    4.1120    0.6080    1.2530 C   0  0  0  0  0  0  0  0  0  0  0  0
   -0.4400   -0.0120   -0.4330 N   0  0  0  0  0  0  0  0  0  0  0  0
    1.7820   -0.4430   -1.1870 N   0  0  0  0  0  0  0  0  0  0  0  0
    1.6070    0.4850    0.7890 N   0  0  0  0  0  0  0  0  0  0  0  0
   -2.7190   -1.9030    0.8720 O   0  0  0  0  0  0  0  0  0  0  0  0
    4.3920   -1.0260   -2.2380 H   0  0  0  0  0  0  0  0  0  0  0  0
    6.2440    0.5360    1.2710 H   0  0  0  0  0  0  0  0  0  0  0  0
   -5.2310   -1.8890    0.1290 H   0  0  0  0  0  0  0  0  0  0  0  0
   -6.4370    0.0620   -0.7630 H   0  0  0  0  0  0  0  0  0  0  0  0
   -5.2770    2.2180   -1.0180 H   0  0  0  0  0  0  0  0  0  0  0  0
   -2.9090    2.4280   -0.3800 H   0  0  0  0  0  0  0  0  0  0  0  0
   -1.0500    1.5730    0.7980 H   0  0  0  0  0  0  0  0  0  0  0  0
   -1.1110   -0.0370    1.5540 H   0  0  0  0  0  0  0  0  0  0  0  0
    6.4160   -0.5040   -0.9500 H   0  0  0  0  0  0  0  0  0  0  0  0
    4.0430    1.0650    2.2290 H   0  0  0  0  0  0  0  0  0  0  0  0
   -0.8430   -0.3740   -1.2380 H   0  0  0  0  0  0  0  0  0  0  0  0
    1.2130    0.8740    1.5850 H   0  0  0  0  0  0  0  0  0  0  0  0
   -2.7700   -1.9900    1.8330 H   0  0  0  0  0  0  0  0  0  0  0  0
  5 18  1  0  0  0  0
  5  6  2  0  0  0  0
  6  7  1  0  0  0  0
  7  8  2  0  0  0  0
  8  9  1  0  0  0  0
  9 10  2  0  0  0  0
 10 11  1  0  0  0  0
 11 15  1  0  0  0  0
  1 15  1  0  0  0  0
  1 16  2  0  0  0  0
 12 16  1  0  0  0  0
  2 12  2  0  0  0  0
  2 13  1  0  0  0  0
  3 13  2  0  0  0  0
  3 14  1  0  0  0  0
  4 14  2  0  0  0  0
  4 17  1  0  0  0  0
  5 10  1  0  0  0  0
  1 17  1  0  0  0  0
  4 12  1  0  0  0  0
  2 19  1  0  0  0  0
  3 20  1  0  0  0  0
  6 21  1  0  0  0  0
  7 22  1  0  0  0  0
  8 23  1  0  0  0  0
  9 24  1  0  0  0  0
 11 25  1  0  0  0  0
 11 26  1  0  0  0  0
 13 27  1  0  0  0  0
 14 28  1  0  0  0  0
 15 29  1  0  0  0  0
 17 30  1  0  0  0  0
 18 31  1  0  0  0  0
M  END
> <OPENEYE_ISO_SMILES>
c1ccc(c(c1)CNc2[nH]c3ccccc3n2)O

> <OPENEYE_INCHI>
InChI=1S/C14H13N3O/c18-13-8-4-1-5-10(13)9-15-14-16-11-6-2-3-7-12(11)17-14/h1-8,18H,9H2,(H2,15,16,17)

> <OPENEYE_INCHIKEY>
OCDMDLRMBVJKCG-UHFFFAOYSA-N

> <FORMULA>
C14H13N3O

$$$$
