@<TRIPOS>MOLECULE
/home/pku/3cl/gett_pdb/7R2V/7R2V_mol2/ligand/7R2V_SAH.pdb
 26 28 0 0 0
SMALL
GASTEIGER

@<TRIPOS>ATOM
      1  N         15.7570   -7.1170  -14.6960 N.3   601  SAH601     -0.1208
      2  CA        14.2990   -6.8940  -14.9100 C.3   601  SAH601      0.1952
      3  CB        13.6860   -7.9710  -15.8120 C.3   601  SAH601      0.0422
      4  CG        12.4810   -7.4800  -16.5980 C.3   601  SAH601      0.0597
      5  SD        11.8630   -8.6640  -17.8240 S.3   601  SAH601     -0.1375
      6  C         13.5830   -6.9190  -13.5590 C.2   601  SAH601      0.3819
      7  O         14.1530   -7.3400  -12.5510 O.co2 601  SAH601     -0.2441
      8  OXT       12.4230   -6.5070  -13.4730 O.co2 601  SAH601     -0.2441
      9  C5'       13.2750   -8.9670  -18.9150 C.3   601  SAH601      0.0898
     10  C4'       13.9240   -7.7630  -19.5570 C.3   601  SAH601      0.1610
     11  O4'       15.1290   -8.2010  -20.2210 O.3   601  SAH601     -0.3323
     12  C3'       13.0950   -7.0520  -20.6270 C.3   601  SAH601      0.2144
     13  O3'       13.3330   -5.6490  -20.5790 O.3   601  SAH601     -0.2176
     14  C2'       13.6080   -7.6860  -21.9230 C.3   601  SAH601      0.2337
     15  O2'       13.4370   -6.8690  -23.0620 O.3   601  SAH601     -0.2155
     16  C1'       15.0850   -7.8530  -21.5850 C.3   601  SAH601      0.2409
     17  N9        15.7660   -8.8940  -22.3500 N.ar  601  SAH601     -0.2693
     18  C8        15.2350  -10.0760  -22.8040 C.ar  601  SAH601      0.1816
     19  N7        16.0930  -10.8100  -23.4670 N.ar  601  SAH601     -0.2193
     20  C5        17.2660  -10.0700  -23.4520 C.ar  601  SAH601      0.1518
     21  C6        18.5460  -10.3080  -23.9910 C.ar  601  SAH601      0.1919
     22  N6        18.8730  -11.3980  -24.6790 N.pl3 601  SAH601     -0.1054
     23  N1        19.4920   -9.3580  -23.7930 N.ar  601  SAH601     -0.2040
     24  C2        19.1620   -8.2540  -23.1060 C.ar  601  SAH601      0.2016
     25  N3        17.9990   -7.9270  -22.5520 N.ar  601  SAH601     -0.2048
     26  C4        17.0770   -8.8850  -22.7650 C.ar  601  SAH601      0.1692
@<TRIPOS>BOND
     1    22    21    1
     2    21    23   ar
     3    21    20   ar
     4    23    24   ar
     5    19    20   ar
     6    19    18   ar
     7    20    26   ar
     8    24    25   ar
     9    15    14    1
    10    18    17   ar
    11    26    25   ar
    12    26    17   ar
    13    17    16    1
    14    14    16    1
    15    14    12    1
    16    16    11    1
    17    12    13    1
    18    12    10    1
    19    11    10    1
    20    10     9    1
    21     9     5    1
    22     5     4    1
    23     4     3    1
    24     3     2    1
    25     2     1    1
    26     2     6    1
    27     6     8   ar
    28     6     7   ar
