R30
  -OEChem-02242320033D

 51 54  0     0  0  0  0  0  0999 V2000
   -1.3020   -1.1050    0.4180 O   0  0  0  0  0  0  0  0  0  0  0  0
   -1.2760   -0.0650   -0.2060 C   0  0  0  0  0  0  0  0  0  0  0  0
   -0.1270    0.3510   -0.7750 N   0  0  0  0  0  0  0  0  0  0  0  0
    1.0590   -0.3610   -0.5600 C   0  0  0  0  0  0  0  0  0  0  0  0
    1.0280   -1.5710    0.1210 C   0  0  0  0  0  0  0  0  0  0  0  0
    2.1980   -2.2740    0.3330 C   0  0  0  0  0  0  0  0  0  0  0  0
    3.4040   -1.7710   -0.1370 C   0  0  0  0  0  0  0  0  0  0  0  0
    4.5910   -2.4850    0.0770 N   0  0  0  0  0  0  0  0  0  0  0  0
    5.7450   -1.8230    0.2920 C   0  0  0  0  0  0  0  0  0  0  0  0
    7.0410   -2.5850    0.4030 C   0  0  0  0  0  0  0  0  0  0  0  0
    8.1900   -1.6050    0.6440 C   0  0  0  0  0  0  0  0  0  0  0  0
    5.7420   -0.6150    0.3960 O   0  0  0  0  0  0  0  0  0  0  0  0
    3.4350   -0.5620   -0.8190 C   0  0  0  0  0  0  0  0  0  0  0  0
    2.2650    0.1390   -1.0340 C   0  0  0  0  0  0  0  0  0  0  0  0
   -0.1200    1.5490   -1.6180 C   0  0  0  0  0  0  0  0  0  0  0  0
    0.2030    2.7560   -0.7750 C   0  0  0  0  0  0  0  0  0  0  0  0
    1.4550    3.1370   -0.5170 C   0  0  0  0  0  0  0  0  0  0  0  0
    1.4380    4.5760    0.4930 S   0  0  0  0  0  0  0  0  0  0  0  0
   -0.3210    4.5800    0.5090 C   0  0  0  0  0  0  0  0  0  0  0  0
   -0.7770    3.5550   -0.2130 C   0  0  0  0  0  0  0  0  0  0  0  0
   -2.5300    0.7590   -0.3500 C   0  0  0  0  0  0  0  0  0  0  0  0
   -3.6240    0.1150    0.3820 N   0  0  0  0  0  0  0  0  0  0  0  0
   -3.9760    0.3270    1.7230 N   0  0  0  0  0  0  0  0  0  0  0  0
   -4.9860   -0.4110    2.0220 N   0  0  0  0  0  0  0  0  0  0  0  0
   -5.3680   -1.1370    0.9530 C   0  0  0  0  0  0  0  0  0  0  0  0
   -4.5110   -0.8110   -0.1130 C   0  0  0  0  0  0  0  0  0  0  0  0
   -4.6850   -1.4170   -1.3520 C   0  0  0  0  0  0  0  0  0  0  0  0
   -5.6910   -2.3250   -1.5300 C   0  0  0  0  0  0  0  0  0  0  0  0
   -6.5440   -2.6480   -0.4820 C   0  0  0  0  0  0  0  0  0  0  0  0
   -6.3890   -2.0750    0.7460 C   0  0  0  0  0  0  0  0  0  0  0  0
    0.0900   -1.9620    0.4860 H   0  0  0  0  0  0  0  0  0  0  0  0
    2.1740   -3.2140    0.8630 H   0  0  0  0  0  0  0  0  0  0  0  0
    4.5810   -3.4550    0.0710 H   0  0  0  0  0  0  0  0  0  0  0  0
    6.9800   -3.2860    1.2350 H   0  0  0  0  0  0  0  0  0  0  0  0
    7.2200   -3.1340   -0.5220 H   0  0  0  0  0  0  0  0  0  0  0  0
    9.1270   -2.1560    0.7240 H   0  0  0  0  0  0  0  0  0  0  0  0
    8.2510   -0.9040   -0.1880 H   0  0  0  0  0  0  0  0  0  0  0  0
    8.0110   -1.0560    1.5690 H   0  0  0  0  0  0  0  0  0  0  0  0
    4.3730   -0.1710   -1.1830 H   0  0  0  0  0  0  0  0  0  0  0  0
    2.2880    1.0770   -1.5670 H   0  0  0  0  0  0  0  0  0  0  0  0
    0.6330    1.4390   -2.3990 H   0  0  0  0  0  0  0  0  0  0  0  0
   -1.1010    1.6780   -2.0760 H   0  0  0  0  0  0  0  0  0  0  0  0
    2.3440    2.6370   -0.8740 H   0  0  0  0  0  0  0  0  0  0  0  0
   -0.9380    5.3030    1.0220 H   0  0  0  0  0  0  0  0  0  0  0  0
   -1.8320    3.3620   -0.3460 H   0  0  0  0  0  0  0  0  0  0  0  0
   -2.3590    1.7560    0.0560 H   0  0  0  0  0  0  0  0  0  0  0  0
   -2.7950    0.8360   -1.4050 H   0  0  0  0  0  0  0  0  0  0  0  0
   -4.0270   -1.1710   -2.1730 H   0  0  0  0  0  0  0  0  0  0  0  0
   -5.8250   -2.7940   -2.4930 H   0  0  0  0  0  0  0  0  0  0  0  0
   -7.3340   -3.3670   -0.6390 H   0  0  0  0  0  0  0  0  0  0  0  0
   -7.0590   -2.3330    1.5530 H   0  0  0  0  0  0  0  0  0  0  0  0
  1  2  2  0  0  0  0
  2  3  1  0  0  0  0
  2 21  1  0  0  0  0
  3  4  1  0  0  0  0
  3 15  1  0  0  0  0
  4  5  2  0  0  0  0
  4 14  1  0  0  0  0
  5  6  1  0  0  0  0
  6  7  2  0  0  0  0
  7  8  1  0  0  0  0
  7 13  1  0  0  0  0
  8  9  1  0  0  0  0
  9 10  1  0  0  0  0
  9 12  2  0  0  0  0
 10 11  1  0  0  0  0
 13 14  2  0  0  0  0
 15 16  1  0  0  0  0
 16 17  2  0  0  0  0
 16 20  1  0  0  0  0
 17 18  1  0  0  0  0
 18 19  1  0  0  0  0
 19 20  2  0  0  0  0
 21 22  1  0  0  0  0
 22 23  1  0  0  0  0
 22 26  1  0  0  0  0
 23 24  2  0  0  0  0
 24 25  1  0  0  0  0
 25 26  2  0  0  0  0
 25 30  1  0  0  0  0
 26 27  1  0  0  0  0
 27 28  2  0  0  0  0
 28 29  1  0  0  0  0
 29 30  2  0  0  0  0
  5 31  1  0  0  0  0
  6 32  1  0  0  0  0
  8 33  1  0  0  0  0
 10 34  1  0  0  0  0
 10 35  1  0  0  0  0
 11 36  1  0  0  0  0
 11 37  1  0  0  0  0
 11 38  1  0  0  0  0
 13 39  1  0  0  0  0
 14 40  1  0  0  0  0
 15 41  1  0  0  0  0
 15 42  1  0  0  0  0
 17 43  1  0  0  0  0
 19 44  1  0  0  0  0
 20 45  1  0  0  0  0
 21 46  1  0  0  0  0
 21 47  1  0  0  0  0
 27 48  1  0  0  0  0
 28 49  1  0  0  0  0
 29 50  1  0  0  0  0
 30 51  1  0  0  0  0
M  END
> <OPENEYE_ISO_SMILES>
CCC(=O)Nc1ccc(cc1)N(Cc2ccsc2)C(=O)Cn3c4ccccc4nn3

> <OPENEYE_INCHI>
InChI=1S/C22H21N5O2S/c1-2-21(28)23-17-7-9-18(10-8-17)26(13-16-11-12-30-15-16)22(29)14-27-20-6-4-3-5-19(20)24-25-27/h3-12,15H,2,13-14H2,1H3,(H,23,28)

> <OPENEYE_INCHIKEY>
TWIVXCFEBRGEKY-UHFFFAOYSA-N

> <FORMULA>
C22H21N5O2S

$$$$
