G7F
  -OEChem-02242320023D

 32 33  0     0  0  0  0  0  0999 V2000
   -4.0020   -0.1370   -1.1340 C   0  0  0  0  0  0  0  0  0  0  0  0
   -3.0430   -0.1620   -0.0200 C   0  0  0  0  0  0  0  0  0  0  0  0
   -2.4710    2.1490   -0.5380 C   0  0  0  0  0  0  0  0  0  0  0  0
   -1.3550    0.9090    1.3740 C   0  0  0  0  0  0  0  0  0  0  0  0
   -0.0110    0.4510    0.8700 C   0  0  0  0  0  0  0  0  0  0  0  0
    2.0430    0.6730    0.0110 C   0  0  0  0  0  0  0  0  0  0  0  0
    3.2240    1.4530   -0.5460 C   0  0  0  0  0  0  0  0  0  0  0  0
   -2.3110    0.9340    0.2640 N   0  0  0  0  0  0  0  0  0  0  0  0
   -4.7240   -1.2190   -1.4140 C   0  0  0  0  0  0  0  0  0  0  0  0
   -2.9100   -1.1710    0.6460 O   0  0  0  0  0  0  0  0  0  0  0  0
    4.4690    0.5640   -0.4920 C   0  0  0  0  0  0  0  0  0  0  0  0
    2.0530   -0.6670    0.1400 C   0  0  0  0  0  0  0  0  0  0  0  0
    3.2020   -1.5700   -0.2400 C   0  0  0  0  0  0  0  0  0  0  0  0
    4.1600   -0.7860   -1.1450 C   0  0  0  0  0  0  0  0  0  0  0  0
    0.9100    1.2270    0.4190 N   0  0  0  0  0  0  0  0  0  0  0  0
    0.5130   -1.1750    0.8220 S   0  0  0  0  0  0  0  0  0  0  0  0
   -4.1230    0.7600   -1.7230 H   0  0  0  0  0  0  0  0  0  0  0  0
   -3.2460    2.7760   -0.0970 H   0  0  0  0  0  0  0  0  0  0  0  0
   -1.5290    2.6970   -0.5590 H   0  0  0  0  0  0  0  0  0  0  0  0
   -2.7570    1.8790   -1.5540 H   0  0  0  0  0  0  0  0  0  0  0  0
   -1.7090    0.2220    2.1430 H   0  0  0  0  0  0  0  0  0  0  0  0
   -1.2630    1.9100    1.7960 H   0  0  0  0  0  0  0  0  0  0  0  0
    3.0210    1.7350   -1.5790 H   0  0  0  0  0  0  0  0  0  0  0  0
    3.3860    2.3490    0.0530 H   0  0  0  0  0  0  0  0  0  0  0  0
   -4.6030   -2.1160   -0.8260 H   0  0  0  0  0  0  0  0  0  0  0  0
   -5.4320   -1.1990   -2.2300 H   0  0  0  0  0  0  0  0  0  0  0  0
    5.2850    1.0480   -1.0280 H   0  0  0  0  0  0  0  0  0  0  0  0
    4.7590    0.4070    0.5470 H   0  0  0  0  0  0  0  0  0  0  0  0
    3.7280   -1.8910    0.6590 H   0  0  0  0  0  0  0  0  0  0  0  0
    2.8210   -2.4420   -0.7730 H   0  0  0  0  0  0  0  0  0  0  0  0
    3.6930   -0.6250   -2.1170 H   0  0  0  0  0  0  0  0  0  0  0  0
    5.0840   -1.3500   -1.2730 H   0  0  0  0  0  0  0  0  0  0  0  0
 13 14  1  0  0  0  0
 11 14  1  0  0  0  0
 12 13  1  0  0  0  0
  7 11  1  0  0  0  0
  6 12  2  0  0  0  0
 12 16  1  0  0  0  0
  6  7  1  0  0  0  0
  6 15  1  0  0  0  0
  5 16  1  0  0  0  0
  5 15  2  0  0  0  0
  4  5  1  0  0  0  0
  4  8  1  0  0  0  0
  2 10  2  0  0  0  0
  2  8  1  0  0  0  0
  1  2  1  0  0  0  0
  3  8  1  0  0  0  0
  1  9  2  0  0  0  0
  1 17  1  0  0  0  0
  3 18  1  0  0  0  0
  3 19  1  0  0  0  0
  3 20  1  0  0  0  0
  4 21  1  0  0  0  0
  4 22  1  0  0  0  0
  7 23  1  0  0  0  0
  7 24  1  0  0  0  0
  9 25  1  0  0  0  0
  9 26  1  0  0  0  0
 11 27  1  0  0  0  0
 11 28  1  0  0  0  0
 13 29  1  0  0  0  0
 13 30  1  0  0  0  0
 14 31  1  0  0  0  0
 14 32  1  0  0  0  0
M  END
> <OPENEYE_ISO_SMILES>
CN(Cc1nc2c(s1)CCCC2)C(=O)C=C

> <OPENEYE_INCHI>
InChI=1S/C12H16N2OS/c1-3-12(15)14(2)8-11-13-9-6-4-5-7-10(9)16-11/h3H,1,4-8H2,2H3

> <OPENEYE_INCHIKEY>
YJZOYCOTGFHVFV-UHFFFAOYSA-N

> <FORMULA>
C12H16N2OS

$$$$
