@<TRIPOS>MOLECULE
/home/pku/3cl/gett_pdb/5SRL/5SRL_mol2/ligand/5SRL_RA3.pdb
 42 45 0 0 0
SMALL
GASTEIGER

@<TRIPOS>ATOM
      1  C18      -44.0180  -29.4270    5.9440 C.ar  201  RA3201      0.1204
      2  C16      -46.3160  -29.3150    6.1740 C.ar  201  RA3201      0.1442
      3  C13      -48.6520  -28.9030    3.4380 C.ar  201  RA3201     -0.0491
      4  C12      -50.0320  -28.8330    3.5600 C.ar  201  RA3201     -0.0257
      5  C11      -50.6410  -28.9290    4.8060 C.ar  201  RA3201      0.1254
      6  C10      -49.8580  -29.0890    5.9360 C.ar  201  RA3201     -0.0025
      7  C20      -46.1160  -30.0780    1.9540 C.3   201  RA3201      0.0402
      8  C02      -42.1400  -29.6550    0.5670 C.3   201  RA3201      0.0719
      9  C03      -43.3660  -30.0550    1.3910 C.3   201  RA3201      0.0977
     10  C04      -44.0450  -28.7980    1.9500 C.3   201  RA3201      0.0421
     11  C06      -45.2800  -29.1720    4.0280 C.ar  201  RA3201      0.1345
     12  C07      -46.4570  -29.1710    4.8080 C.ar  201  RA3201      0.0663
     13  C08      -47.8650  -29.0650    4.5850 C.ar  201  RA3201      0.0124
     14  C09      -48.4710  -29.1540    5.8230 C.ar  201  RA3201      0.0515
     15  C21      -45.3490  -31.2540    1.3480 C.3   201  RA3201      0.0799
     16  C23      -46.2650  -32.1040    0.4680 C.3   201  RA3201      0.0146
     17  C24      -45.6130  -33.4240    0.0560 C.2   201  RA3201      0.0442
     18  F14      -51.9990  -28.8680    4.9170 F     201  RA3201     -0.2054
     19  N05      -45.3270  -29.0390    2.5740 N.pl3 201  RA3201     -0.3095
     20  N15      -47.5190  -29.3070    6.7510 N.ar  201  RA3201     -0.3389
     21  N17      -45.0940  -29.4390    6.6980 N.ar  201  RA3201     -0.2178
     22  N19      -44.1070  -29.2910    4.6320 N.ar  201  RA3201     -0.2200
     23  O01      -41.4200  -30.8120    0.2270 O.3   201  RA3201     -0.3924
     24  O22      -44.2390  -30.8140    0.5680 O.3   201  RA3201     -0.3676
     25  O25      -44.3570  -33.5110   -0.0210 O.co2 201  RA3201     -0.5497
     26  O26      -46.3330  -34.4230   -0.2080 O.co2 201  RA3201     -0.5497
     27 H181      -43.0430  -29.5250    6.4080 H     201  RA3201      0.1048
     28 H131      -48.1730  -28.8350    2.4610 H     201  RA3201      0.0625
     29 H121      -50.6240  -28.7170    2.6760 H     201  RA3201      0.0646
     30 H101      -50.2990  -29.1590    6.9150 H     201  RA3201      0.0667
     31 H201      -46.7790  -30.5040    2.6950 H     201  RA3201      0.0490
     32 H202      -46.7300  -29.6040    1.1980 H     201  RA3201      0.0490
     33 H022      -42.4550  -29.1330   -0.3320 H     201  RA3201      0.0583
     34 H021      -41.5030  -29.0030    1.1560 H     201  RA3201      0.0583
     35 H031      -43.0450  -30.6790    2.2140 H     201  RA3201      0.0635
     36 H042      -44.2040  -28.1000    1.1360 H     201  RA3201      0.0490
     37 H041      -43.3650  -28.3080    2.6480 H     201  RA3201      0.0490
     38 H211      -44.9870  -31.8680    2.1670 H     201  RA3201      0.0615
     39 H231      -47.1530  -32.3210    1.0440 H     201  RA3201      0.0350
     40 H232      -46.5380  -31.5610   -0.4340 H     201  RA3201      0.0350
     41 H151      -47.6630  -29.3930    7.7410 H     201  RA3201      0.1673
     42 H011      -40.5720  -30.5670   -0.1140 H     201  RA3201      0.2095
@<TRIPOS>UNITY_ATOM_ATTR
25 1
charge -1
@<TRIPOS>BOND
     1    40    16    1
     2    33     8    1
     3    26    17   ar
     4    42    23    1
     5    25    17   ar
     6    17    16    1
     7    23     8    1
     8    16    39    1
     9    16    15    1
    10     8    34    1
    11     8     9    1
    12    24    15    1
    13    24     9    1
    14    36    10    1
    15    32     7    1
    16    15     7    1
    17    15    38    1
    18     9    10    1
    19     9    35    1
    20    10    19    1
    21    10    37    1
    22     7    19    1
    23     7    31    1
    24    28     3    1
    25    19    11    1
    26    29     4    1
    27     3     4   ar
    28     3    13   ar
    29     4     5   ar
    30    11    22   ar
    31    11    12   ar
    32    13    12   ar
    33    13    14   ar
    34    22     1   ar
    35     5    18    1
    36     5     6   ar
    37    12     2   ar
    38    14     6   ar
    39    14    20   ar
    40     6    30    1
    41     1    27    1
    42     1    21   ar
    43     2    21   ar
    44     2    20   ar
    45    20    41    1
