WWT
  -OEChem-02242320043D

 28 29  0     0  0  0  0  0  0999 V2000
   -1.3490    0.0080    0.0070 C   0  0  0  0  0  0  0  0  0  0  0  0
   -3.1420   -1.2170    0.0170 C   0  0  0  0  0  0  0  0  0  0  0  0
   -2.4530    0.8840    0.0040 C   0  0  0  0  0  0  0  0  0  0  0  0
    6.0570   -0.6740   -0.0040 C   0  0  0  0  0  0  0  0  0  0  0  0
    4.8210    0.2280   -0.0070 C   0  0  0  0  0  0  0  0  0  0  0  0
    3.5590   -0.6360    0.0010 C   0  0  0  0  0  0  0  0  0  0  0  0
    1.1430   -0.3170    0.0040 C   0  0  0  0  0  0  0  0  0  0  0  0
   -0.0490    0.5540    0.0020 C   0  0  0  0  0  0  0  0  0  0  0  0
    0.0740    1.9460   -0.0070 C   0  0  0  0  0  0  0  0  0  0  0  0
   -1.0660    2.7280   -0.0100 C   0  0  0  0  0  0  0  0  0  0  0  0
    2.3760    0.2280   -0.0020 N   0  0  0  0  0  0  0  0  0  0  0  0
   -2.2700    2.1910   -0.0040 N   0  0  0  0  0  0  0  0  0  0  0  0
   -3.5750    0.0760    0.0100 N   0  0  0  0  0  0  0  0  0  0  0  0
   -1.8320   -1.2480    0.0100 N   0  0  0  0  0  0  0  0  0  0  0  0
    1.0130   -1.5250    0.0120 O   0  0  0  0  0  0  0  0  0  0  0  0
   -3.9450   -2.3050    0.0250 O   0  0  0  0  0  0  0  0  0  0  0  0
    6.0450   -1.3090   -0.8900 H   0  0  0  0  0  0  0  0  0  0  0  0
    6.9570   -0.0580   -0.0090 H   0  0  0  0  0  0  0  0  0  0  0  0
    6.0490   -1.2980    0.8900 H   0  0  0  0  0  0  0  0  0  0  0  0
    4.8330    0.8630    0.8790 H   0  0  0  0  0  0  0  0  0  0  0  0
    4.8290    0.8520   -0.9000 H   0  0  0  0  0  0  0  0  0  0  0  0
    3.5470   -1.2700   -0.8850 H   0  0  0  0  0  0  0  0  0  0  0  0
    3.5510   -1.2590    0.8950 H   0  0  0  0  0  0  0  0  0  0  0  0
    1.0510    2.4070   -0.0110 H   0  0  0  0  0  0  0  0  0  0  0  0
   -0.9680    3.8030   -0.0160 H   0  0  0  0  0  0  0  0  0  0  0  0
    2.4800    1.1930   -0.0080 H   0  0  0  0  0  0  0  0  0  0  0  0
   -4.4980    0.3740    0.0130 H   0  0  0  0  0  0  0  0  0  0  0  0
   -4.1800   -2.6260   -0.8570 H   0  0  0  0  0  0  0  0  0  0  0  0
  5  6  1  0  0  0  0
  4  5  1  0  0  0  0
  6 11  1  0  0  0  0
  7 11  1  0  0  0  0
  7 15  2  0  0  0  0
  7  8  1  0  0  0  0
  8  9  2  0  0  0  0
  1  8  1  0  0  0  0
  9 10  1  0  0  0  0
  1 14  1  0  0  0  0
  2 14  2  0  0  0  0
  1  3  2  0  0  0  0
  2 16  1  0  0  0  0
  2 13  1  0  0  0  0
 10 12  2  0  0  0  0
  3 12  1  0  0  0  0
  3 13  1  0  0  0  0
  4 17  1  0  0  0  0
  4 18  1  0  0  0  0
  4 19  1  0  0  0  0
  5 20  1  0  0  0  0
  5 21  1  0  0  0  0
  6 22  1  0  0  0  0
  6 23  1  0  0  0  0
  9 24  1  0  0  0  0
 10 25  1  0  0  0  0
 11 26  1  0  0  0  0
 13 27  1  0  0  0  0
 16 28  1  0  0  0  0
M  END
> <OPENEYE_ISO_SMILES>
CCCNC(=O)c1ccnc2c1nc([nH]2)O

> <OPENEYE_INCHI>
InChI=1S/C10H12N4O2/c1-2-4-12-9(15)6-3-5-11-8-7(6)13-10(16)14-8/h3,5H,2,4H2,1H3,(H,12,15)(H2,11,13,14,16)

> <OPENEYE_INCHIKEY>
JAOVHLJGWXTEMD-UHFFFAOYSA-N

> <FORMULA>
C10H12N4O2

$$$$
