4SV
  -OEChem-02242320013D

 16 16  0     0  0  0  0  0  0999 V2000
    2.2400   -0.8420    0.0940 O   0  0  0  0  0  0  0  0  0  0  0  0
    1.6540    0.2180    0.0100 C   0  0  0  0  0  0  0  0  0  0  0  0
    2.3510    1.3680   -0.0830 O   0  0  0  0  0  0  0  0  0  0  0  0
    0.1780    0.2470    0.0060 C   0  0  0  0  0  0  0  0  0  0  0  0
   -0.5690   -0.9440   -0.0170 C   0  0  0  0  0  0  0  0  0  0  0  0
    0.0670   -2.1780   -0.0370 N   0  0  0  0  0  0  0  0  0  0  0  0
   -0.5190    1.4610    0.0310 C   0  0  0  0  0  0  0  0  0  0  0  0
   -1.8980    1.4420    0.0270 C   0  0  0  0  0  0  0  0  0  0  0  0
   -2.5650    0.3040   -0.0000 N   0  0  0  0  0  0  0  0  0  0  0  0
   -1.9590   -0.8630   -0.0200 C   0  0  0  0  0  0  0  0  0  0  0  0
    3.3150    1.2980   -0.0800 H   0  0  0  0  0  0  0  0  0  0  0  0
    0.0160    2.3990    0.0540 H   0  0  0  0  0  0  0  0  0  0  0  0
    1.0330   -2.2270    0.0460 H   0  0  0  0  0  0  0  0  0  0  0  0
   -0.4530   -2.9900   -0.1330 H   0  0  0  0  0  0  0  0  0  0  0  0
   -2.5460   -1.7690   -0.0370 H   0  0  0  0  0  0  0  0  0  0  0  0
   -2.4420    2.3750    0.0470 H   0  0  0  0  0  0  0  0  0  0  0  0
  1  2  2  0  0  0  0
  2  3  1  0  0  0  0
  2  4  1  0  0  0  0
  4  5  1  0  0  0  0
  4  7  2  0  0  0  0
  5  6  1  0  0  0  0
  5 10  2  0  0  0  0
  7  8  1  0  0  0  0
  8  9  2  0  0  0  0
  9 10  1  0  0  0  0
  3 11  1  0  0  0  0
  7 12  1  0  0  0  0
  6 13  1  0  0  0  0
  6 14  1  0  0  0  0
 10 15  1  0  0  0  0
  8 16  1  0  0  0  0
M  END
> <OPENEYE_ISO_SMILES>
c1cncc(c1C(=O)O)N

> <OPENEYE_INCHI>
InChI=1S/C6H6N2O2/c7-5-3-8-2-1-4(5)6(9)10/h1-3H,7H2,(H,9,10)

> <OPENEYE_INCHIKEY>
FYEQKMAVRYRMBL-UHFFFAOYSA-N

> <FORMULA>
C6H6N2O2

$$$$
