@<TRIPOS>MOLECULE
/home/pku/3cl/gett_pdb/7EO8/7EO8_mol2/ligand/7EO8_FNO.pdb
 21 22 0 0 0
SMALL
GASTEIGER

@<TRIPOS>ATOM
      1  C10       67.5570  -33.5360    0.6150 C.ar  401  FNO401      0.1974
      2  C13       65.1780  -32.1040    0.9700 C.ar  401  FNO401      0.1988
      3  C15       67.7590  -33.7650    3.0920 C.ar  401  FNO401      0.1990
      4  C17       65.5480  -33.8000   -5.2360 C.3   401  FNO401      0.0001
      5  C20       66.1130  -34.4700   -6.4880 C.3   401  FNO401      0.0000
      6  C21       64.0310  -34.0030   -5.1180 C.3   401  FNO401      0.0000
      7  C06       67.4100  -33.3390   -1.8980 C.3   401  FNO401      0.1774
      8  C07       66.8530  -33.0560   -0.4910 C.ar  401  FNO401      0.0499
      9  C08       66.2770  -33.1820   -2.9100 C.3   401  FNO401      0.0376
     10  C09       67.0650  -33.2940    1.9350 C.ar  401  FNO401      0.0838
     11  C11       65.9070  -32.5970    2.0910 C.ar  401  FNO401      0.0840
     12  C12       65.6590  -32.3340   -0.3200 C.ar  401  FNO401      0.0435
     13  C14       66.2730  -34.2740   -3.9790 C.3   401  FNO401      0.0030
     14  C16       65.3890  -32.3410    3.3850 C.ar  401  FNO401      0.1990
     15  C18       67.2610  -33.5170    4.3740 C.ar  401  FNO401      0.0454
     16  C19       66.0680  -32.8040    4.5130 C.ar  401  FNO401      0.0454
     17  O01       68.4830  -32.4790   -2.2040 O.3   401  FNO401     -0.2182
     18  O02       68.7540  -34.2490    0.4070 O.3   401  FNO401     -0.2867
     19  O03       68.9560  -34.4770    2.9300 O.3   401  FNO401     -0.2865
     20  O04       63.9820  -31.4020    1.2230 O.3   401  FNO401     -0.2865
     21  O05       64.1930  -31.6160    3.4780 O.3   401  FNO401     -0.2865
@<TRIPOS>BOND
     1     5     4    1
     2     4     6    1
     3     4    13    1
     4    13     9    1
     5     9     7    1
     6    17     7    1
     7     7     8    1
     8     8    12   ar
     9     8     1   ar
    10    12     2   ar
    11    18     1    1
    12     1    10   ar
    13     2    20    1
    14     2    11   ar
    15    10    11   ar
    16    10     3   ar
    17    11    14   ar
    18    19     3    1
    19     3    15   ar
    20    14    21    1
    21    14    16   ar
    22    15    16   ar
