QR6
  -OEChem-02242320033D

 50 53  0     1  0  0  0  0  0999 V2000
    2.8980    0.3240   -0.8630 C   0  0  0  0  0  0  0  0  0  0  0  0
    1.6070    0.7060   -1.1580 C   0  0  0  0  0  0  0  0  0  0  0  0
    0.5340   -0.0990   -0.7580 C   0  0  0  0  0  0  0  0  0  0  0  0
   -0.8500    0.3050   -1.0720 C   0  0  0  0  0  0  0  0  0  0  0  0
   -3.2560   -0.0700   -0.9980 C   0  0  2  0  0  0  0  0  0  0  0  0
   -3.8330    0.7500    0.1360 C   0  0  0  0  0  0  0  0  0  0  0  0
   -3.2720    1.7770    0.8760 C   0  0  0  0  0  0  0  0  0  0  0  0
    3.1350   -0.8600   -0.1750 C   0  0  0  0  0  0  0  0  0  0  0  0
   -3.6340   -2.4410   -0.2600 C   0  0  0  0  0  0  0  0  0  0  0  0
   -4.1670   -1.3120   -1.1030 C   0  0  1  0  0  0  0  0  0  0  0  0
   -5.5050   -0.7890   -0.5360 C   0  0  0  0  0  0  0  0  0  0  0  0
   -5.1250    0.3370    0.4010 C   0  0  0  0  0  0  0  0  0  0  0  0
   -5.8550    0.9540    1.4090 C   0  0  0  0  0  0  0  0  0  0  0  0
   -5.2880    1.9820    2.1480 C   0  0  0  0  0  0  0  0  0  0  0  0
   -3.9970    2.3910    1.8800 C   0  0  0  0  0  0  0  0  0  0  0  0
    5.3670   -0.3090    0.4210 C   0  0  0  0  0  0  0  0  0  0  0  0
    7.6110    0.3330    1.1200 C   0  0  0  0  0  0  0  0  0  0  0  0
    9.0240    0.1290    0.5700 C   0  0  0  0  0  0  0  0  0  0  0  0
    8.7470   -0.0730    2.0610 C   0  0  0  0  0  0  0  0  0  0  0  0
    2.0700   -1.6660    0.2190 C   0  0  0  0  0  0  0  0  0  0  0  0
    0.7770   -1.2860   -0.0620 C   0  0  0  0  0  0  0  0  0  0  0  0
   -1.8820   -0.4710   -0.6860 N   0  0  0  0  0  0  0  0  0  0  0  0
    4.4420   -1.2430    0.1220 N   0  0  0  0  0  0  0  0  0  0  0  0
    6.6060   -0.6830    0.7950 N   0  0  0  0  0  0  0  0  0  0  0  0
   -4.0430   -2.6020    0.8650 O   0  0  0  0  0  0  0  0  0  0  0  0
   -7.1250    0.5500    1.6720 O   0  0  0  0  0  0  0  0  0  0  0  0
    5.0820    0.8710    0.3530 O   0  0  0  0  0  0  0  0  0  0  0  0
   -1.0590    1.3380   -1.6780 O   0  0  0  0  0  0  0  0  0  0  0  0
   -2.7030   -3.2690   -0.7600 O   0  0  0  0  0  0  0  0  0  0  0  0
    1.3120    2.1820   -2.0220 Cl  0  0  0  0  0  0  0  0  0  0  0  0
    3.7270    0.9440   -1.1710 H   0  0  0  0  0  0  0  0  0  0  0  0
   -3.2820    0.4980   -1.9280 H   0  0  0  0  0  0  0  0  0  0  0  0
   -2.2620    2.1000    0.6690 H   0  0  0  0  0  0  0  0  0  0  0  0
   -4.2790   -1.6240   -2.1410 H   0  0  0  0  0  0  0  0  0  0  0  0
   -6.1360   -0.4140   -1.3420 H   0  0  0  0  0  0  0  0  0  0  0  0
   -6.0190   -1.5800    0.0100 H   0  0  0  0  0  0  0  0  0  0  0  0
   -5.8560    2.4620    2.9310 H   0  0  0  0  0  0  0  0  0  0  0  0
   -3.5530    3.1910    2.4540 H   0  0  0  0  0  0  0  0  0  0  0  0
    7.2400    1.3550    1.1900 H   0  0  0  0  0  0  0  0  0  0  0  0
    9.2070   -0.7600   -0.0330 H   0  0  0  0  0  0  0  0  0  0  0  0
    9.5830    1.0180    0.2780 H   0  0  0  0  0  0  0  0  0  0  0  0
    9.1230    0.6820    2.7510 H   0  0  0  0  0  0  0  0  0  0  0  0
    8.7460   -1.0960    2.4390 H   0  0  0  0  0  0  0  0  0  0  0  0
    2.2580   -2.5860    0.7520 H   0  0  0  0  0  0  0  0  0  0  0  0
   -0.0490   -1.9100    0.2480 H   0  0  0  0  0  0  0  0  0  0  0  0
   -1.7150   -1.2950   -0.2030 H   0  0  0  0  0  0  0  0  0  0  0  0
    4.6870   -2.1820    0.1130 H   0  0  0  0  0  0  0  0  0  0  0  0
    6.8330   -1.6250    0.8480 H   0  0  0  0  0  0  0  0  0  0  0  0
   -7.1860   -0.1550    2.3300 H   0  0  0  0  0  0  0  0  0  0  0  0
   -2.3910   -3.9790   -0.1810 H   0  0  0  0  0  0  0  0  0  0  0  0
  9 25  2  0  0  0  0
 10 11  1  0  0  0  0
 11 12  1  0  0  0  0
 12 13  2  0  0  0  0
 13 26  1  0  0  0  0
 13 14  1  0  0  0  0
 14 15  2  0  0  0  0
  7 15  1  0  0  0  0
  6  7  2  0  0  0  0
  5  6  1  0  0  0  0
  5 22  1  0  0  0  0
  4 22  1  0  0  0  0
  2  3  2  0  0  0  0
  2 30  1  0  0  0  0
  1  2  1  0  0  0  0
  1  8  2  0  0  0  0
 16 23  1  0  0  0  0
 17 24  1  0  0  0  0
 17 18  1  0  0  0  0
 18 19  1  0  0  0  0
 16 24  1  0  0  0  0
 16 27  2  0  0  0  0
  8 23  1  0  0  0  0
  8 20  1  0  0  0  0
 20 21  2  0  0  0  0
  3  4  1  0  0  0  0
  4 28  2  0  0  0  0
  9 10  1  0  0  0  0
  9 29  1  0  0  0  0
  5 10  1  0  0  0  0
  6 12  1  0  0  0  0
  3 21  1  0  0  0  0
 17 19  1  0  0  0  0
  1 31  1  0  0  0  0
  5 32  1  0  0  0  0
  7 33  1  0  0  0  0
 10 34  1  0  0  0  0
 11 35  1  0  0  0  0
 11 36  1  0  0  0  0
 14 37  1  0  0  0  0
 15 38  1  0  0  0  0
 17 39  1  0  0  0  0
 18 40  1  0  0  0  0
 18 41  1  0  0  0  0
 19 42  1  0  0  0  0
 19 43  1  0  0  0  0
 20 44  1  0  0  0  0
 21 45  1  0  0  0  0
 22 46  1  0  0  0  0
 23 47  1  0  0  0  0
 24 48  1  0  0  0  0
 26 49  1  0  0  0  0
 29 50  1  0  0  0  0
M  END
> <OPENEYE_ISO_SMILES>
c1cc2c(c(c1)O)C[C@@H]([C@@H]2NC(=O)c3ccc(cc3Cl)NC(=O)NC4CC4)C(=O)O

> <OPENEYE_INCHI>
InChI=1S/C21H20ClN3O5/c22-16-8-11(24-21(30)23-10-4-5-10)6-7-13(16)19(27)25-18-12-2-1-3-17(26)14(12)9-15(18)20(28)29/h1-3,6-8,10,15,18,26H,4-5,9H2,(H,25,27)(H,28,29)(H2,23,24,30)/t15-,18+/m0/s1

> <OPENEYE_INCHIKEY>
DCWUYIIPJAIWML-MAUKXSAKSA-N

> <FORMULA>
C21H20ClN3O5

$$$$
