WWH
  -OEChem-02242320043D

 53 55  0     1  0  0  0  0  0999 V2000
   -2.4440   -0.5590   -0.4710 C   0  0  0  0  0  0  0  0  0  0  0  0
    0.4990   -3.9810   -0.2430 C   0  0  0  0  0  0  0  0  0  0  0  0
   -0.8660   -4.4540    0.2610 C   0  0  0  0  0  0  0  0  0  0  0  0
    5.7270   -0.1930   -0.9100 C   0  0  0  0  0  0  0  0  0  0  0  0
    5.0350    1.8210   -0.0450 C   0  0  0  0  0  0  0  0  0  0  0  0
    3.7280    3.3170    0.9120 C   0  0  0  0  0  0  0  0  0  0  0  0
   -4.7500    0.3860   -0.2940 C   0  0  0  0  0  0  0  0  0  0  0  0
   -3.7320   -0.5530    0.3560 C   0  0  0  0  0  0  0  0  0  0  0  0
   -1.4410   -1.4840    0.1690 C   0  0  0  0  0  0  0  0  0  0  0  0
    0.7500   -2.5490    0.2330 C   0  0  1  0  0  0  0  0  0  0  0  0
    2.1640   -2.1200   -0.1640 C   0  0  0  0  0  0  0  0  0  0  0  0
    3.5740   -0.0970   -0.0820 C   0  0  0  0  0  0  0  0  0  0  0  0
    3.7860    1.2510    0.2550 C   0  0  0  0  0  0  0  0  0  0  0  0
   -6.0790    0.2980    0.4610 C   0  0  0  0  0  0  0  0  0  0  0  0
   -7.0970    1.2360   -0.1890 C   0  0  0  0  0  0  0  0  0  0  0  0
   -6.5740    2.6730   -0.1340 C   0  0  0  0  0  0  0  0  0  0  0  0
   -5.2460    2.7610   -0.8880 C   0  0  0  0  0  0  0  0  0  0  0  0
   -4.2270    1.8220   -0.2390 C   0  0  0  0  0  0  0  0  0  0  0  0
   -0.2260   -1.6500   -0.3890 N   0  0  0  0  0  0  0  0  0  0  0  0
    2.3630   -0.7110    0.1840 N   0  0  0  0  0  0  0  0  0  0  0  0
    3.0330    2.2200    0.8290 N   0  0  0  0  0  0  0  0  0  0  0  0
    4.9660    3.1260    0.3730 N   0  0  0  0  0  0  0  0  0  0  0  0
    5.9670    1.0690   -0.6220 N   0  0  0  0  0  0  0  0  0  0  0  0
    4.5670   -0.7710   -0.6530 N   0  0  0  0  0  0  0  0  0  0  0  0
   -1.7270   -2.0800    1.1860 O   0  0  0  0  0  0  0  0  0  0  0  0
   -2.6630   -0.9040   -1.4820 H   0  0  0  0  0  0  0  0  0  0  0  0
   -2.0340    0.4490   -0.5120 H   0  0  0  0  0  0  0  0  0  0  0  0
    1.2770   -4.6360    0.1490 H   0  0  0  0  0  0  0  0  0  0  0  0
    0.5140   -4.0100   -1.3320 H   0  0  0  0  0  0  0  0  0  0  0  0
   -1.0450   -5.4740   -0.0780 H   0  0  0  0  0  0  0  0  0  0  0  0
   -0.8810   -4.4250    1.3510 H   0  0  0  0  0  0  0  0  0  0  0  0
   -1.6450   -3.7990   -0.1310 H   0  0  0  0  0  0  0  0  0  0  0  0
    6.5050   -0.7760   -1.3800 H   0  0  0  0  0  0  0  0  0  0  0  0
    3.3710    4.2470    1.3290 H   0  0  0  0  0  0  0  0  0  0  0  0
   -4.9030    0.0940   -1.3330 H   0  0  0  0  0  0  0  0  0  0  0  0
   -4.1420   -1.5620    0.3970 H   0  0  0  0  0  0  0  0  0  0  0  0
   -3.5130   -0.2090    1.3670 H   0  0  0  0  0  0  0  0  0  0  0  0
    0.6470   -2.5020    1.3170 H   0  0  0  0  0  0  0  0  0  0  0  0
    2.8920   -2.7320    0.3680 H   0  0  0  0  0  0  0  0  0  0  0  0
    2.2950   -2.2510   -1.2380 H   0  0  0  0  0  0  0  0  0  0  0  0
   -6.4510   -0.7260    0.4210 H   0  0  0  0  0  0  0  0  0  0  0  0
   -5.9260    0.5890    1.5000 H   0  0  0  0  0  0  0  0  0  0  0  0
   -7.2490    0.9450   -1.2280 H   0  0  0  0  0  0  0  0  0  0  0  0
   -8.0430    1.1740    0.3480 H   0  0  0  0  0  0  0  0  0  0  0  0
   -7.3000    3.3420   -0.5970 H   0  0  0  0  0  0  0  0  0  0  0  0
   -6.4220    2.9650    0.9050 H   0  0  0  0  0  0  0  0  0  0  0  0
   -5.3980    2.4690   -1.9270 H   0  0  0  0  0  0  0  0  0  0  0  0
   -4.8730    3.7850   -0.8490 H   0  0  0  0  0  0  0  0  0  0  0  0
   -4.0750    2.1140    0.8000 H   0  0  0  0  0  0  0  0  0  0  0  0
   -3.2810    1.8850   -0.7760 H   0  0  0  0  0  0  0  0  0  0  0  0
    0.0040   -1.1730   -1.2030 H   0  0  0  0  0  0  0  0  0  0  0  0
    1.6460   -0.2080    0.6010 H   0  0  0  0  0  0  0  0  0  0  0  0
    5.6710    3.7880    0.3070 H   0  0  0  0  0  0  0  0  0  0  0  0
 15 16  1  0  0  0  0
 16 17  1  0  0  0  0
 14 15  1  0  0  0  0
 17 18  1  0  0  0  0
  7 18  1  0  0  0  0
  7 14  1  0  0  0  0
  7  8  1  0  0  0  0
  1  8  1  0  0  0  0
  1  9  1  0  0  0  0
  2  3  1  0  0  0  0
  2 10  1  0  0  0  0
  9 19  1  0  0  0  0
 10 19  1  0  0  0  0
  9 25  2  0  0  0  0
 10 11  1  0  0  0  0
 11 20  1  0  0  0  0
 12 20  1  0  0  0  0
 12 24  2  0  0  0  0
 12 13  1  0  0  0  0
 13 21  1  0  0  0  0
  6 21  2  0  0  0  0
  4 24  1  0  0  0  0
  5 13  2  0  0  0  0
  6 22  1  0  0  0  0
  4 23  2  0  0  0  0
  5 22  1  0  0  0  0
  5 23  1  0  0  0  0
  1 26  1  0  0  0  0
  1 27  1  0  0  0  0
  2 28  1  0  0  0  0
  2 29  1  0  0  0  0
  3 30  1  0  0  0  0
  3 31  1  0  0  0  0
  3 32  1  0  0  0  0
  4 33  1  0  0  0  0
  6 34  1  0  0  0  0
  7 35  1  0  0  0  0
  8 36  1  0  0  0  0
  8 37  1  0  0  0  0
 10 38  1  0  0  0  0
 11 39  1  0  0  0  0
 11 40  1  0  0  0  0
 14 41  1  0  0  0  0
 14 42  1  0  0  0  0
 15 43  1  0  0  0  0
 15 44  1  0  0  0  0
 16 45  1  0  0  0  0
 16 46  1  0  0  0  0
 17 47  1  0  0  0  0
 17 48  1  0  0  0  0
 18 49  1  0  0  0  0
 18 50  1  0  0  0  0
 19 51  1  0  0  0  0
 20 52  1  0  0  0  0
 22 53  1  0  0  0  0
M  END
> <OPENEYE_ISO_SMILES>
CC[C@@H](CNc1c2c([nH]cn2)ncn1)NC(=O)CCC3CCCCC3

> <OPENEYE_INCHI>
InChI=1S/C18H28N6O/c1-2-14(24-15(25)9-8-13-6-4-3-5-7-13)10-19-17-16-18(21-11-20-16)23-12-22-17/h11-14H,2-10H2,1H3,(H,24,25)(H2,19,20,21,22,23)/t14-/m0/s1

> <OPENEYE_INCHIKEY>
YUSKQHZYIKIRME-AWEZNQCLSA-N

> <FORMULA>
C18H28N6O

$$$$
