RI7
  -OEChem-02242320043D

 42 45  0     1  0  0  0  0  0999 V2000
    3.0660   -1.7730    0.5380 C   0  0  0  0  0  0  0  0  0  0  0  0
    1.8830    1.5930   -0.3770 C   0  0  0  0  0  0  0  0  0  0  0  0
    2.6290    2.7510   -0.3770 C   0  0  0  0  0  0  0  0  0  0  0  0
    3.9670    2.7200   -0.0070 C   0  0  0  0  0  0  0  0  0  0  0  0
    4.5650    1.5310    0.3590 C   0  0  0  0  0  0  0  0  0  0  0  0
    3.8260    0.3540    0.3680 C   0  0  0  0  0  0  0  0  0  0  0  0
    2.4730    0.3870   -0.0040 C   0  0  0  0  0  0  0  0  0  0  0  0
    1.7010   -3.6280    0.5000 C   0  0  0  0  0  0  0  0  0  0  0  0
   -7.0030    1.7530    0.8470 C   0  0  0  0  0  0  0  0  0  0  0  0
   -4.8600    0.7500    0.5660 C   0  0  0  0  0  0  0  0  0  0  0  0
   -3.7570   -0.1940    0.9700 C   0  0  0  0  0  0  0  0  0  0  0  0
   -2.5990   -0.0800   -0.0230 C   0  0  1  0  0  0  0  0  0  0  0  0
   -1.4290   -0.9460    0.4540 C   0  0  0  0  0  0  0  0  0  0  0  0
    0.7500   -1.6210   -0.1200 C   0  0  0  0  0  0  0  0  0  0  0  0
    1.9810   -0.9950    0.1050 C   0  0  0  0  0  0  0  0  0  0  0  0
   -0.8230   -1.3650   -1.8500 C   0  0  0  0  0  0  0  0  0  0  0  0
   -1.9980   -0.4950   -2.3050 C   0  0  0  0  0  0  0  0  0  0  0  0
    4.6900    3.8620   -0.0110 F   0  0  0  0  0  0  0  0  0  0  0  0
   -0.3490   -0.8930   -0.5410 N   0  0  1  0  0  0  0  0  0  0  0  0
    4.1570   -0.9530    0.6860 N   0  0  0  0  0  0  0  0  0  0  0  0
    2.8770   -3.0810    0.7170 N   0  0  0  0  0  0  0  0  0  0  0  0
    0.6550   -2.9310    0.0980 N   0  0  0  0  0  0  0  0  0  0  0  0
   -5.9840    0.8220    1.2960 O   0  0  0  0  0  0  0  0  0  0  0  0
   -3.0260   -0.5330   -1.3100 O   0  0  0  0  0  0  0  0  0  0  0  0
   -4.7320    1.4440   -0.4160 O   0  0  0  0  0  0  0  0  0  0  0  0
    0.8420    1.6200   -0.6650 H   0  0  0  0  0  0  0  0  0  0  0  0
    2.1720    3.6860   -0.6660 H   0  0  0  0  0  0  0  0  0  0  0  0
    5.6070    1.5170    0.6450 H   0  0  0  0  0  0  0  0  0  0  0  0
    1.5870   -4.6910    0.6560 H   0  0  0  0  0  0  0  0  0  0  0  0
   -6.5940    2.7640    0.8400 H   0  0  0  0  0  0  0  0  0  0  0  0
   -7.3240    1.4850   -0.1590 H   0  0  0  0  0  0  0  0  0  0  0  0
   -7.8570    1.7120    1.5240 H   0  0  0  0  0  0  0  0  0  0  0  0
   -3.4060    0.0630    1.9690 H   0  0  0  0  0  0  0  0  0  0  0  0
   -4.1360   -1.2160    0.9690 H   0  0  0  0  0  0  0  0  0  0  0  0
   -2.2780    0.9600   -0.0900 H   0  0  0  0  0  0  0  0  0  0  0  0
   -1.0630   -0.5680    1.4090 H   0  0  0  0  0  0  0  0  0  0  0  0
   -1.7640   -1.9760    0.5740 H   0  0  0  0  0  0  0  0  0  0  0  0
   -1.1480   -2.4020   -1.7670 H   0  0  0  0  0  0  0  0  0  0  0  0
   -0.0140   -1.2930   -2.5780 H   0  0  0  0  0  0  0  0  0  0  0  0
   -1.6600    0.5330   -2.4390 H   0  0  0  0  0  0  0  0  0  0  0  0
   -2.3900   -0.8760   -3.2480 H   0  0  0  0  0  0  0  0  0  0  0  0
    5.0360   -1.2470    0.9720 H   0  0  0  0  0  0  0  0  0  0  0  0
 10 25  2  0  0  0  0
  9 23  1  0  0  0  0
 10 23  1  0  0  0  0
 10 11  1  0  0  0  0
 17 24  1  0  0  0  0
 12 24  1  0  0  0  0
 16 17  1  0  0  0  0
 11 12  1  0  0  0  0
 12 13  1  0  0  0  0
 16 19  1  0  0  0  0
 13 19  1  0  0  0  0
 14 19  1  0  0  0  0
  2  3  2  0  0  0  0
  2  7  1  0  0  0  0
  3  4  1  0  0  0  0
 14 22  2  0  0  0  0
 14 15  1  0  0  0  0
  7 15  1  0  0  0  0
  6  7  2  0  0  0  0
  8 22  1  0  0  0  0
  4 18  1  0  0  0  0
  4  5  2  0  0  0  0
  1 15  2  0  0  0  0
  5  6  1  0  0  0  0
  6 20  1  0  0  0  0
  8 21  2  0  0  0  0
  1 21  1  0  0  0  0
  1 20  1  0  0  0  0
  2 26  1  0  0  0  0
  3 27  1  0  0  0  0
  5 28  1  0  0  0  0
  8 29  1  0  0  0  0
  9 30  1  0  0  0  0
  9 31  1  0  0  0  0
  9 32  1  0  0  0  0
 11 33  1  0  0  0  0
 11 34  1  0  0  0  0
 12 35  1  0  0  0  0
 13 36  1  0  0  0  0
 13 37  1  0  0  0  0
 16 38  1  0  0  0  0
 16 39  1  0  0  0  0
 17 40  1  0  0  0  0
 17 41  1  0  0  0  0
 20 42  1  0  0  0  0
M  END
> <OPENEYE_ISO_SMILES>
COC(=O)C[C@H]1C[N@](CCO1)c2c3c4ccc(cc4[nH]c3ncn2)F

> <OPENEYE_INCHI>
InChI=1S/C17H17FN4O3/c1-24-14(23)7-11-8-22(4-5-25-11)17-15-12-3-2-10(18)6-13(12)21-16(15)19-9-20-17/h2-3,6,9,11H,4-5,7-8H2,1H3,(H,19,20,21)/t11-/m0/s1

> <OPENEYE_INCHIKEY>
MJWKGJBWQCLDGE-NSHDSACASA-N

> <FORMULA>
C17H17FN4O3

$$$$
