WUY
  -OEChem-02242320043D

 26 26  0     0  0  0  0  0  0999 V2000
    4.2690    0.5370    0.0910 C   0  0  0  0  0  0  0  0  0  0  0  0
   -5.5060    0.4360    0.1240 N   0  0  0  0  0  0  0  0  0  0  0  0
   -4.3630   -0.4260   -0.2070 C   0  0  0  0  0  0  0  0  0  0  0  0
   -3.0610    0.2980    0.1370 C   0  0  0  0  0  0  0  0  0  0  0  0
   -1.9210   -0.5620   -0.1930 N   0  0  0  0  0  0  0  0  0  0  0  0
   -0.6640   -0.1290    0.0270 C   0  0  0  0  0  0  0  0  0  0  0  0
    0.3840   -0.9200   -0.2770 N   0  0  0  0  0  0  0  0  0  0  0  0
    1.6890   -0.4310   -0.1530 C   0  0  0  0  0  0  0  0  0  0  0  0
    1.9570    0.9080   -0.4090 C   0  0  0  0  0  0  0  0  0  0  0  0
    3.2460    1.3890   -0.2810 C   0  0  0  0  0  0  0  0  0  0  0  0
    4.0070   -0.7980    0.3370 C   0  0  0  0  0  0  0  0  0  0  0  0
    2.7200   -1.2840    0.2150 C   0  0  0  0  0  0  0  0  0  0  0  0
   -0.4750    0.9750    0.4990 O   0  0  0  0  0  0  0  0  0  0  0  0
    5.2770    0.9150    0.1870 H   0  0  0  0  0  0  0  0  0  0  0  0
   -6.3790   -0.0200   -0.0940 H   0  0  0  0  0  0  0  0  0  0  0  0
   -5.4770    0.7180    1.0930 H   0  0  0  0  0  0  0  0  0  0  0  0
   -4.4280   -1.3510    0.3670 H   0  0  0  0  0  0  0  0  0  0  0  0
   -4.3800   -0.6580   -1.2720 H   0  0  0  0  0  0  0  0  0  0  0  0
   -2.9960    1.2230   -0.4370 H   0  0  0  0  0  0  0  0  0  0  0  0
   -3.0440    0.5300    1.2020 H   0  0  0  0  0  0  0  0  0  0  0  0
   -2.0720   -1.4430   -0.5700 H   0  0  0  0  0  0  0  0  0  0  0  0
    0.2330   -1.8290   -0.5810 H   0  0  0  0  0  0  0  0  0  0  0  0
    1.1590    1.5720   -0.7030 H   0  0  0  0  0  0  0  0  0  0  0  0
    3.4530    2.4310   -0.4720 H   0  0  0  0  0  0  0  0  0  0  0  0
    4.8100   -1.4620    0.6230 H   0  0  0  0  0  0  0  0  0  0  0  0
    2.5150   -2.3260    0.4150 H   0  0  0  0  0  0  0  0  0  0  0  0
  2  3  1  0  0  0  0
  3  4  1  0  0  0  0
  4  5  1  0  0  0  0
  5  6  1  0  0  0  0
  6 13  2  0  0  0  0
  6  7  1  0  0  0  0
  7  8  1  0  0  0  0
  8  9  2  0  0  0  0
  9 10  1  0  0  0  0
  8 12  1  0  0  0  0
  1 10  2  0  0  0  0
 11 12  2  0  0  0  0
  1 11  1  0  0  0  0
  1 14  1  0  0  0  0
  2 15  1  0  0  0  0
  2 16  1  0  0  0  0
  3 17  1  0  0  0  0
  3 18  1  0  0  0  0
  4 19  1  0  0  0  0
  4 20  1  0  0  0  0
  5 21  1  0  0  0  0
  7 22  1  0  0  0  0
  9 23  1  0  0  0  0
 10 24  1  0  0  0  0
 11 25  1  0  0  0  0
 12 26  1  0  0  0  0
M  END
> <OPENEYE_ISO_SMILES>
c1ccc(cc1)NC(=O)NCCN

> <OPENEYE_INCHI>
InChI=1S/C9H13N3O/c10-6-7-11-9(13)12-8-4-2-1-3-5-8/h1-5H,6-7,10H2,(H2,11,12,13)

> <OPENEYE_INCHIKEY>
YZKMURMKJCXVIE-UHFFFAOYSA-N

> <FORMULA>
C9H13N3O

$$$$
