W0V
  -OEChem-02242320043D

 31 32  0     0  0  0  0  0  0999 V2000
   -1.3580    1.2360    0.4370 N   0  0  0  0  0  0  0  0  0  0  0  0
    0.8740    0.9870   -0.7580 C   0  0  0  0  0  0  0  0  0  0  0  0
   -0.5560    0.6100   -0.4660 C   0  0  0  0  0  0  0  0  0  0  0  0
   -2.5810    0.5950    0.4130 C   0  0  0  0  0  0  0  0  0  0  0  0
   -3.7770    0.7710    1.0940 C   0  0  0  0  0  0  0  0  0  0  0  0
   -4.8420   -0.0640    0.8310 C   0  0  0  0  0  0  0  0  0  0  0  0
   -3.5550   -1.2660   -0.7900 C   0  0  0  0  0  0  0  0  0  0  0  0
    3.5640    1.1500   -0.8020 O   0  0  0  0  0  0  0  0  0  0  0  0
    3.1070    0.3160   -0.0490 C   0  0  0  0  0  0  0  0  0  0  0  0
    4.0300   -0.5400    0.7780 C   0  0  0  0  0  0  0  0  0  0  0  0
    3.8100   -2.0130    0.4300 C   0  0  0  0  0  0  0  0  0  0  0  0
    5.4820   -0.1570    0.4820 C   0  0  0  0  0  0  0  0  0  0  0  0
    1.7720    0.1550    0.0470 N   0  0  0  0  0  0  0  0  0  0  0  0
   -1.2030   -0.3620   -1.0410 N   0  0  0  0  0  0  0  0  0  0  0  0
   -2.4630   -0.4310   -0.5390 C   0  0  0  0  0  0  0  0  0  0  0  0
   -4.7250   -1.0780   -0.1100 C   0  0  0  0  0  0  0  0  0  0  0  0
   -1.1150    1.9900    0.9960 H   0  0  0  0  0  0  0  0  0  0  0  0
    1.0830    0.8280   -1.8160 H   0  0  0  0  0  0  0  0  0  0  0  0
    1.0310    2.0360   -0.5100 H   0  0  0  0  0  0  0  0  0  0  0  0
   -3.8740    1.5580    1.8280 H   0  0  0  0  0  0  0  0  0  0  0  0
   -5.7740    0.0710    1.3600 H   0  0  0  0  0  0  0  0  0  0  0  0
   -3.4750   -2.0580   -1.5200 H   0  0  0  0  0  0  0  0  0  0  0  0
    3.8220   -0.3820    1.8370 H   0  0  0  0  0  0  0  0  0  0  0  0
    4.0190   -2.1710   -0.6280 H   0  0  0  0  0  0  0  0  0  0  0  0
    4.4780   -2.6320    1.0290 H   0  0  0  0  0  0  0  0  0  0  0  0
    2.7760   -2.2860    0.6410 H   0  0  0  0  0  0  0  0  0  0  0  0
    5.6390    0.8920    0.7310 H   0  0  0  0  0  0  0  0  0  0  0  0
    6.1500   -0.7760    1.0810 H   0  0  0  0  0  0  0  0  0  0  0  0
    5.6910   -0.3160   -0.5760 H   0  0  0  0  0  0  0  0  0  0  0  0
    1.4060   -0.5120    0.6490 H   0  0  0  0  0  0  0  0  0  0  0  0
   -5.5670   -1.7250   -0.3060 H   0  0  0  0  0  0  0  0  0  0  0  0
  5  6  2  0  0  0  0
  4  5  1  0  0  0  0
  6 16  1  0  0  0  0
  1  4  1  0  0  0  0
  4 15  2  0  0  0  0
  1  3  1  0  0  0  0
  7 16  2  0  0  0  0
  7 15  1  0  0  0  0
 14 15  1  0  0  0  0
  2  3  1  0  0  0  0
  3 14  2  0  0  0  0
  2 13  1  0  0  0  0
  9 13  1  0  0  0  0
  8  9  2  0  0  0  0
  9 10  1  0  0  0  0
 10 12  1  0  0  0  0
 10 11  1  0  0  0  0
  1 17  1  0  0  0  0
  2 18  1  0  0  0  0
  2 19  1  0  0  0  0
  5 20  1  0  0  0  0
  6 21  1  0  0  0  0
  7 22  1  0  0  0  0
 10 23  1  0  0  0  0
 11 24  1  0  0  0  0
 11 25  1  0  0  0  0
 11 26  1  0  0  0  0
 12 27  1  0  0  0  0
 12 28  1  0  0  0  0
 12 29  1  0  0  0  0
 13 30  1  0  0  0  0
 16 31  1  0  0  0  0
M  END
> <OPENEYE_ISO_SMILES>
CC(C)C(=O)NCc1[nH]c2ccccc2n1

> <OPENEYE_INCHI>
InChI=1S/C12H15N3O/c1-8(2)12(16)13-7-11-14-9-5-3-4-6-10(9)15-11/h3-6,8H,7H2,1-2H3,(H,13,16)(H,14,15)

> <OPENEYE_INCHIKEY>
KBFKODIOYYFXAF-UHFFFAOYSA-N

> <FORMULA>
C12H15N3O

$$$$
