UYQ
  -OEChem-02242320043D

 34 34  0     0  0  0  0  0  0999 V2000
    6.9230   -1.0870    0.0030 N   0  0  0  0  0  0  0  0  0  0  0  0
   -5.5910   -1.0870    0.0020 C   0  0  0  0  0  0  0  0  0  0  0  0
   -0.6830    2.4360   -0.0010 C   0  0  0  0  0  0  0  0  0  0  0  0
    4.9050    0.1000    0.0020 N   0  0  0  0  0  0  0  0  0  0  0  0
    0.6830    2.4360    0.0010 C   0  0  0  0  0  0  0  0  0  0  0  0
    2.8550    1.2240    0.0020 C   0  0  0  0  0  0  0  0  0  0  0  0
   -1.3820    1.2240   -0.0020 C   0  0  0  0  0  0  0  0  0  0  0  0
   -2.8550    1.2240    0.0010 C   0  0  0  0  0  0  0  0  0  0  0  0
    3.5040    0.1000    0.0010 N   0  0  0  0  0  0  0  0  0  0  0  0
   -0.6830    0.0130   -0.0080 C   0  0  0  0  0  0  0  0  0  0  0  0
    0.6830    0.0130   -0.0130 C   0  0  0  0  0  0  0  0  0  0  0  0
    1.3820    1.2240    0.0000 C   0  0  0  0  0  0  0  0  0  0  0  0
   -3.5040    0.1000   -0.0000 N   0  0  0  0  0  0  0  0  0  0  0  0
    4.9240   -2.2400    0.0010 N   0  3  0  0  0  0  0  0  0  0  0  0
    5.5910   -1.0870    0.0020 C   0  0  0  0  0  0  0  0  0  0  0  0
   -4.9050    0.1000    0.0040 N   0  0  0  0  0  0  0  0  0  0  0  0
   -6.9230   -1.0870    0.0050 N   0  3  0  0  0  0  0  0  0  0  0  0
   -4.9240   -2.2400   -0.0030 N   0  0  0  0  0  0  0  0  0  0  0  0
    7.4080   -1.9270    0.0030 H   0  0  0  0  0  0  0  0  0  0  0  0
    7.4080   -0.2470    0.0000 H   0  0  0  0  0  0  0  0  0  0  0  0
   -1.2230    3.3710    0.0030 H   0  0  0  0  0  0  0  0  0  0  0  0
    5.3910    0.9400    0.0040 H   0  0  0  0  0  0  0  0  0  0  0  0
    1.2230    3.3710    0.0020 H   0  0  0  0  0  0  0  0  0  0  0  0
    3.3950    2.1600    0.0030 H   0  0  0  0  0  0  0  0  0  0  0  0
   -3.3950    2.1600    0.0050 H   0  0  0  0  0  0  0  0  0  0  0  0
   -1.2230   -0.9220   -0.0100 H   0  0  0  0  0  0  0  0  0  0  0  0
    1.2230   -0.9220   -0.0180 H   0  0  0  0  0  0  0  0  0  0  0  0
    3.9540   -2.2400   -0.0000 H   0  0  0  0  0  0  0  0  0  0  0  0
   -5.3910    0.9400    0.0070 H   0  0  0  0  0  0  0  0  0  0  0  0
   -7.4080   -1.9270    0.0040 H   0  0  0  0  0  0  0  0  0  0  0  0
   -3.9540   -2.2400   -0.0060 H   0  0  0  0  0  0  0  0  0  0  0  0
   -5.4090   -3.0800   -0.0040 H   0  0  0  0  0  0  0  0  0  0  0  0
    5.4090   -3.0800    0.0000 H   0  0  0  0  0  0  0  0  0  0  0  0
   -7.4080   -0.2470    0.0090 H   0  0  0  0  0  0  0  0  0  0  0  0
 14 15  2  0  0  0  0
  4 15  1  0  0  0  0
  1 15  1  0  0  0  0
  4  9  1  0  0  0  0
  6  9  2  0  0  0  0
  6 12  1  0  0  0  0
  5 12  2  0  0  0  0
 11 12  1  0  0  0  0
  3  5  1  0  0  0  0
 10 11  2  0  0  0  0
  3  7  2  0  0  0  0
  7 10  1  0  0  0  0
  7  8  1  0  0  0  0
  8 13  2  0  0  0  0
 13 16  1  0  0  0  0
  2 16  1  0  0  0  0
  2 17  2  0  0  0  0
  2 18  1  0  0  0  0
  1 19  1  0  0  0  0
  1 20  1  0  0  0  0
  3 21  1  0  0  0  0
  4 22  1  0  0  0  0
  5 23  1  0  0  0  0
  6 24  1  0  0  0  0
  8 25  1  0  0  0  0
 10 26  1  0  0  0  0
 11 27  1  0  0  0  0
 14 28  1  0  0  0  0
 16 29  1  0  0  0  0
 17 30  1  0  0  0  0
 18 31  1  0  0  0  0
 18 32  1  0  0  0  0
 14 33  1  0  0  0  0
 17 34  1  0  0  0  0
M  CHG  2  14   1  17   1
M  END
> <OPENEYE_ISO_SMILES>
c1c(ccc(c1)/C=N/NC(=[NH2+])N)/C=N/NC(=[NH2+])N

> <OPENEYE_INCHI>
InChI=1S/C10H14N8/c11-9(12)17-15-5-7-1-2-8(4-3-7)6-16-18-10(13)14/h1-6H,(H4,11,12,17)(H4,13,14,18)/p+2/b15-5+,16-6+

> <OPENEYE_INCHIKEY>
DJQYBCUFGZTQSR-IAGONARPSA-P

> <FORMULA>
C10H16N8+2

$$$$
