MLA
  -OEChem-02242320033D

 11 10  0     0  0  0  0  0  0999 V2000
   -0.0670    0.0000    1.2300 C   0  0  0  0  0  0  0  0  0  0  0  0
   -0.6290    0.0000    2.4490 O   0  0  0  0  0  0  0  0  0  0  0  0
    1.1350    0.0000    1.1190 O   0  0  0  0  0  0  0  0  0  0  0  0
   -0.9370    0.0000    0.0000 C   0  0  0  0  0  0  0  0  0  0  0  0
   -0.0670    0.0000   -1.2300 C   0  0  0  0  0  0  0  0  0  0  0  0
    1.1350    0.0000   -1.1190 O   0  0  0  0  0  0  0  0  0  0  0  0
   -0.6290    0.0000   -2.4490 O   0  0  0  0  0  0  0  0  0  0  0  0
   -0.0710    0.0000    3.2390 H   0  0  0  0  0  0  0  0  0  0  0  0
   -1.5670   -0.8900   -0.0000 H   0  0  0  0  0  0  0  0  0  0  0  0
   -1.5670    0.8900   -0.0000 H   0  0  0  0  0  0  0  0  0  0  0  0
   -0.0710    0.0000   -3.2390 H   0  0  0  0  0  0  0  0  0  0  0  0
  1  2  1  0  0  0  0
  1  3  2  0  0  0  0
  1  4  1  0  0  0  0
  2  8  1  0  0  0  0
  4  5  1  0  0  0  0
  4  9  1  0  0  0  0
  4 10  1  0  0  0  0
  5  6  2  0  0  0  0
  5  7  1  0  0  0  0
  7 11  1  0  0  0  0
M  END
> <OPENEYE_ISO_SMILES>
C(C(=O)O)C(=O)O

> <OPENEYE_INCHI>
InChI=1S/C3H4O4/c4-2(5)1-3(6)7/h1H2,(H,4,5)(H,6,7)

> <OPENEYE_INCHIKEY>
OFOBLEOULBTSOW-UHFFFAOYSA-N

> <FORMULA>
C3H4O4

$$$$
