@<TRIPOS>MOLECULE
/home/pku/3cl/gett_pdb/5RGV/5RGV_mol2/ligand/5RGV_UGG.pdb
 20 22 0 0 0
SMALL
GASTEIGER

@<TRIPOS>ATOM
      1  N1         9.6060   -0.7860   21.9390 N.am  1001  UGG1001    -0.1789
      2  C4         5.3890    1.4200   17.7160 C.ar  1001  UGG1001     0.0988
      3  C5         5.0690    1.3870   19.0900 C.ar  1001  UGG1001     0.0189
      4  C6         3.9830    2.1000   19.6540 C.ar  1001  UGG1001     0.0015
      5  C7         3.7270    2.0300   20.9910 C.ar  1001  UGG1001     0.0000
      6  C8         4.5330    1.2700   21.8260 C.ar  1001  UGG1001    -0.0000
      7  C10        5.8990    0.6000   19.9370 C.ar  1001  UGG1001    -0.0005
      8  C13       12.4960    0.8200   23.5670 C.ar  1001  UGG1001     0.0013
      9  C15       10.5960    0.9770   25.0080 C.ar  1001  UGG1001     0.0013
     10  O          9.1610    1.0860   20.7280 O.2   1001  UGG1001    -0.2726
     11  C          8.9720   -0.1070   20.9630 C.2   1001  UGG1001     0.2500
     12  C11       10.4250   -0.2150   22.9310 C.ar  1001  UGG1001     0.0734
     13  C16        9.8490    0.2260   24.1180 C.ar  1001  UGG1001     0.0166
     14  C14       11.9140    1.2780   24.7300 C.ar  1001  UGG1001     0.0001
     15  C12       11.7610    0.0680   22.6660 C.ar  1001  UGG1001     0.0166
     16  C1         7.9450   -0.9240   20.2060 C.3   1001  UGG1001     0.1150
     17  C2         7.0070   -0.0950   19.3610 C.ar  1001  UGG1001     0.0062
     18  C9         5.5920    0.5670   21.3230 C.ar  1001  UGG1001    -0.0002
     19  N          6.4110    0.7710   17.1790 N.ar  1001  UGG1001    -0.2426
     20  C3         7.1820    0.0450   17.9980 C.ar  1001  UGG1001     0.0951
@<TRIPOS>BOND
     1    19     2   ar
     2    19    20   ar
     3     2     3   ar
     4    20    17   ar
     5     3     4   ar
     6     3     7   ar
     7    17     7   ar
     8    17    16    1
     9     4     5   ar
    10     7    18   ar
    11    16    11    1
    12    10    11    2
    13    11     1   am
    14     5     6   ar
    15    18     6   ar
    16     1    12    1
    17    15    12   ar
    18    15     8   ar
    19    12    13   ar
    20     8    14   ar
    21    13     9   ar
    22    14     9   ar
