@<TRIPOS>MOLECULE
/home/pku/3cl/gett_pdb/7TVX/7TVX_mol2/ligand/7TVX_G65.pdb
 36 40 0 0 0
SMALL
GASTEIGER

@<TRIPOS>ATOM
      1  CBE       18.8470    8.5640   28.0750 C.3   401  G65401      0.0899
      2  CBF       19.5110    9.7820   27.4220 C.3   401  G65401      0.0897
      3  NBG       18.7120   10.8280   27.3460 N.3   401  G65401     -0.2691
      4  CBJ       18.6370   11.4840   28.4760 C.3   401  G65401      0.0897
      5  CBH       17.5170   10.5620   26.8490 C.3   401  G65401      0.0897
      6  CBI       16.8770    9.3710   27.5670 C.3   401  G65401      0.0899
      7  NBD       17.6540    8.3140   27.5820 N.3   401  G65401     -0.2665
      8  CBC       17.7040    7.6690   26.4240 C.3   401  G65401      0.0992
      9  CAZ       16.5880    6.6080   26.3140 C.ar  401  G65401     -0.0061
     10  CBA       15.1720    7.0460   25.9530 C.ar  401  G65401     -0.0028
     11  CBB       14.1990    6.1650   25.8540 C.ar  401  G65401      0.0043
     12  CAY       16.8390    5.3220   26.5210 C.ar  401  G65401     -0.0028
     13  CAX       15.7090    4.2880   26.4040 C.ar  401  G65401      0.0043
     14  CAV       14.4880    4.6900   26.0930 C.ar  401  G65401      0.0554
     15  CAU       13.2980    3.7280   25.9610 C.2   401  G65401      0.2690
     16  OAW       13.4330    2.5510   26.0620 O.2   401  G65401     -0.2680
     17  NAT       11.9910    4.3340   25.7170 N.am  401  G65401     -0.1754
     18  CAO       10.7810    3.5290   25.5730 C.ar  401  G65401      0.0750
     19  CAN       10.4210    3.1300   24.3680 C.ar  401  G65401      0.0328
     20  CAP        9.9320    3.1640   26.7910 C.ar  401  G65401      0.0164
     21  CAQ        8.8340    2.4330   26.6450 C.ar  401  G65401     -0.0016
     22  CAR        8.4170    1.9620   25.2410 C.ar  401  G65401     -0.0064
     23  CAS        7.1510    1.1150   25.0280 C.3   401  G65401      0.0324
     24  CAM        9.1540    2.2800   24.1990 C.ar  401  G65401      0.0699
     25  NAL        8.7280    1.8220   22.8930 N.pl3 401  G65401     -0.1888
     26  CAJ        9.6130    1.2510   21.8990 C.ar  401  G65401      0.1834
     27  NAK        9.1330    0.8330   20.6200 N.ar  401  G65401     -0.2225
     28  SAI       11.1810    0.9740   21.9530 S.2   401  G65401     -0.0492
     29  CAH       11.5760    0.3420   20.5700 C.ar  401  G65401      0.0573
     30  CAG       10.3650    0.2610   19.7630 C.ar  401  G65401      0.0913
     31  CAF       10.1870   -0.2880   18.3510 C.ar  401  G65401      0.0374
     32  CAA       11.1650   -0.8500   17.7460 C.ar  401  G65401      0.0047
     33  CAB       10.9470   -1.3980   16.3780 C.ar  401  G65401      0.0207
     34  CAC        9.7560   -1.3030   15.8190 C.ar  401  G65401      0.0989
     35  NAD        8.6150   -0.6570   16.5270 N.ar  401  G65401     -0.2423
     36  CAE        8.8050   -0.1820   17.7090 C.ar  401  G65401      0.1004
@<TRIPOS>BOND
     1    34    33   ar
     2    34    35   ar
     3    33    32   ar
     4    35    36   ar
     5    36    31   ar
     6    32    31   ar
     7    31    30    1
     8    30    29   ar
     9    30    27   ar
    10    29    28   ar
    11    27    26   ar
    12    26    28   ar
    13    26    25    1
    14    25    24    1
    15    24    19   ar
    16    24    22   ar
    17    19    18   ar
    18    23    22    1
    19    22    21   ar
    20    18    17    1
    21    18    20   ar
    22    17    15   am
    23    11    10   ar
    24    11    14   ar
    25    10     9   ar
    26    15    16    2
    27    15    14    1
    28    14    13   ar
    29     9     8    1
    30     9    12   ar
    31    13    12   ar
    32     8     7    1
    33    21    20   ar
    34     5     3    1
    35     5     6    1
    36     3     2    1
    37     3     4    1
    38     2     1    1
    39     6     7    1
    40     7     1    1
