@<TRIPOS>MOLECULE
/home/pku/3cl/gett_pdb/7M03/7M03_mol2/ligand/7M03_YLD.pdb
 30 31 0 0 0
SMALL
GASTEIGER

@<TRIPOS>ATOM
      1  C11        8.9360   19.7530   27.8020 C.3   401  YLD401      0.1287
      2  C12        7.7610   19.7500   26.7210 C.3   401  YLD401      0.0335
      3  C13        7.6470   20.9990   25.7990 C.3   401  YLD401      0.0818
      4  C14        6.5970   20.9870   24.6440 C.2   401  YLD401      0.2410
      5  C02       10.8000   23.9430   25.8490 C.2   401  YLD401      0.4218
      6  C04       12.1600   22.1480   27.0260 C.3   401  YLD401      0.1761
      7  C05       13.2300   21.9170   28.1020 C.3   401  YLD401      0.0312
      8  C06       14.6800   22.3050   27.7240 C.3   401  YLD401      0.0022
      9  C07       15.7080   22.1400   28.8980 C.3   401  YLD401      0.0001
     10  C08       15.1060   21.5330   26.4640 C.3   401  YLD401      0.0001
     11  C09       10.7990   21.5570   27.5780 C.2   401  YLD401      0.2614
     12  C16        5.7080   22.4730   26.2780 C.3   401  YLD401      0.1156
     13  C17        7.1950   22.2080   26.6310 C.3   401  YLD401      0.0326
     14  C19        9.2560   18.3380   28.3410 C.3   401  YLD401      0.2036
     15  C23       11.4450   25.9540   24.5690 C.3   401  YLD401      0.2368
     16  C24       11.4610   27.5330   24.5270 C.ar  401  YLD401      0.0236
     17  C25       12.4410   28.2560   25.1940 C.ar  401  YLD401      0.0290
     18  C26       12.4720   29.6790   25.1650 C.ar  401  YLD401      0.1399
     19  C28       11.4840   30.3970   24.4480 C.ar  401  YLD401      0.0296
     20  C29       10.4840   29.6830   23.7670 C.ar  401  YLD401      0.0021
     21  C30       10.4850   28.2770   23.8130 C.ar  401  YLD401     -0.0005
     22  F27       13.4030   30.3240   25.8000 F     401  YLD401     -0.2042
     23  N03       11.9430   23.5580   26.6310 N.am  401  YLD401     -0.1611
     24  N10       10.2230   20.3290   27.2610 N.am  401  YLD401     -0.2030
     25  N15        5.5000   21.8620   24.9670 N.am  401  YLD401     -0.2054
     26  O01       10.0340   23.1520   25.4230 O.2   401  YLD401     -0.2245
     27  O18        6.7210   20.3480   23.6650 O.2   401  YLD401     -0.2734
     28  O20       10.1290   18.4430   29.4440 O.3   401  YLD401     -0.2185
     29  O21       10.2050   22.3150   28.3630 O.2   401  YLD401     -0.2715
     30  O22       10.6040   25.3320   25.5730 O.3   401  YLD401     -0.4285
@<TRIPOS>BOND
     1    27     4    2
     2    20    21   ar
     3    20    19   ar
     4    21    16   ar
     5    19    18   ar
     6    16    15    1
     7    16    17   ar
     8    15    30    1
     9     4    25   am
    10     4     3    1
    11    25    12    1
    12    18    17   ar
    13    18    22    1
    14    26     5    2
    15    30     5    1
    16     3    13    1
    17     3     2    1
    18     5    23   am
    19    12    13    1
    20    10     8    1
    21    23     6    1
    22     2     1    1
    23     6    11    1
    24     6     7    1
    25    24    11   am
    26    24     1    1
    27    11    29    2
    28     8     7    1
    29     8     9    1
    30     1    14    1
    31    14    28    1
