@<TRIPOS>MOLECULE
/home/pku/3cl/gett_pdb/5E0H/5E0H_mol2/ligand/5E0H_5LH.pdb
 33 34 0 0 0
SMALL
GASTEIGER

@<TRIPOS>ATOM
      1  C26      -22.3370   40.5260  -16.4220 C.2   201  5LH201      0.4633
      2  O27      -22.7860   40.4070  -17.7960 O.co2 201  5LH201     -0.2207
      3  O35      -22.0070   41.6210  -16.0570 O.co2 201  5LH201     -0.2207
      4  N16      -23.2620   33.1860  -13.5200 N.am  201  5LH201     -0.2054
      5  C17      -23.9030   34.0830  -12.6150 C.3   201  5LH201      0.1172
      6  C18      -24.9900   34.8630  -13.5170 C.3   201  5LH201      0.0498
      7  C19      -25.6400   35.8620  -12.5810 C.3   201  5LH201      0.1311
      8  N20      -24.9820   37.0490  -12.9210 N.ar  201  5LH201     -0.2305
      9  C21      -23.7530   37.4920  -12.5140 C.ar  201  5LH201      0.1132
     10  C22      -23.4700   38.7440  -13.1270 C.ar  201  5LH201      0.1031
     11  C23      -22.2720   39.6660  -13.0170 C.3   201  5LH201      0.0805
     12  C24      -21.4830   39.6150  -14.2880 C.3   201  5LH201      0.1822
     13  N25      -22.2890   39.3520  -15.4990 N.am  201  5LH201     -0.1577
     14  C36      -20.4560   38.5310  -14.1090 C.2   201  5LH201      0.2621
     15  O37      -20.5710   37.4620  -14.6910 O.2   201  5LH201     -0.2715
     16  N38      -24.5820   38.9530  -13.8920 N.ar  201  5LH201     -0.1331
     17  N39      -25.4370   37.9660  -13.7780 N.ar  201  5LH201     -0.0641
     18  N11      -19.3870   38.8620  -13.2080 N.am  201  5LH201     -0.1963
     19  C06      -18.3060   37.9800  -12.9350 C.3   201  5LH201      0.1728
     20  C05      -18.8150   36.7870  -12.1840 C.2   201  5LH201      0.2612
     21  O12      -19.7980   36.8670  -11.3870 O.2   201  5LH201     -0.2715
     22  C07      -17.2740   38.6800  -12.0990 C.3   201  5LH201      0.0311
     23  C08      -16.7500   39.9610  -12.8300 C.3   201  5LH201      0.0022
     24  C10      -15.8230   39.6250  -13.9860 C.3   201  5LH201      0.0001
     25  C09      -16.0880   40.8540  -11.7960 C.3   201  5LH201      0.0001
     26  N04      -18.1270   35.5420  -12.4010 N.am  201  5LH201     -0.2030
     27  C03      -18.6080   34.3830  -11.7430 C.3   201  5LH201      0.1287
     28  C13      -19.3670   33.5730  -12.7500 C.3   201  5LH201      0.0340
     29  C14      -20.8480   34.1500  -12.8790 C.3   201  5LH201      0.0887
     30  C15      -21.8000   33.1640  -13.7090 C.2   201  5LH201      0.2414
     31  O40      -21.3690   32.3580  -14.5360 O.2   201  5LH201     -0.2733
     32  C02      -17.4430   33.6090  -11.2270 C.3   201  5LH201      0.2036
     33  O01      -16.8700   34.3820  -10.3390 O.3   201  5LH201     -0.2185
@<TRIPOS>BOND
     1     2     1   ar
     2     1     3   ar
     3     1    13   am
     4    13    12    1
     5    15    14    2
     6    31    30    2
     7    12    14    1
     8    12    11    1
     9    14    18   am
    10    24    23    1
    11    16    17   ar
    12    16    10   ar
    13    17     8   ar
    14    30     4   am
    15    30    29    1
    16     4     5    1
    17     6     5    1
    18     6     7    1
    19    18    19    1
    20    10    11    1
    21    10     9   ar
    22    19    20    1
    23    19    22    1
    24     8     7    1
    25     8     9   ar
    26    29    28    1
    27    23    22    1
    28    23    25    1
    29    28    27    1
    30    26    20   am
    31    26    27    1
    32    20    21    2
    33    27    32    1
    34    32    33    1
