@<TRIPOS>MOLECULE
/home/pku/3cl/gett_pdb/5RSQ/5RSQ_mol2/ligand/5RSQ_MOK.pdb
 23 24 0 0 0
SMALL
GASTEIGER

@<TRIPOS>ATOM
      1  C1       -42.9320  -31.1420    0.6640 C.3   201  MOK201     -0.0030
      2  C2       -44.3300  -30.7690    0.9980 C.ar  201  MOK201      0.1436
      3  C3       -44.7290  -30.3340    2.2050 C.ar  201  MOK201      0.0667
      4  C4       -43.7780  -30.1500    3.3320 C.2   201  MOK201      0.0771
      5  O5       -43.4510  -31.1490    4.0030 O.co2 201  MOK201     -0.5445
      6  O6       -43.3310  -29.0070    3.5520 O.co2 201  MOK201     -0.5445
      7  C7       -46.0970  -30.0590    2.0920 C.ar  201  MOK201      0.1224
      8  N8       -46.4300  -30.3800    0.8660 N.ar  201  MOK201     -0.0774
      9  O9       -45.3570  -30.7270    0.2330 O.2   201  MOK201     -0.3587
     10  C10      -47.0400  -29.5220    3.1190 C.ar  201  MOK201      0.0043
     11  C11      -48.2380  -29.0310    2.7150 C.ar  201  MOK201     -0.0524
     12  C12      -49.1270  -28.5420    3.6260 C.ar  201  MOK201     -0.0611
     13  C13      -48.7540  -28.5390    4.9380 C.ar  201  MOK201     -0.0617
     14  C14      -47.5480  -29.0650    5.3460 C.ar  201  MOK201     -0.0611
     15  C15      -46.6730  -29.5450    4.4230 C.ar  201  MOK201     -0.0524
     16  H1       -42.3470  -30.3870    0.8320 H     201  MOK201      0.0309
     17  H2       -42.8790  -31.3910   -0.2720 H     201  MOK201      0.0309
     18  H3       -42.6570  -31.8920    1.2140 H     201  MOK201      0.0309
     19  H5       -48.4060  -28.9980    1.8080 H     201  MOK201      0.0624
     20  H6       -49.9380  -28.1750    3.3560 H     201  MOK201      0.0618
     21  H7       -49.3490  -28.2190    5.5780 H     201  MOK201      0.0618
     22  H8       -47.3250  -29.0740    6.2490 H     201  MOK201      0.0618
     23  H9       -45.8560  -29.9010    4.6850 H     201  MOK201      0.0624
@<TRIPOS>UNITY_ATOM_ATTR
5 1
charge -1
@<TRIPOS>BOND
     1    17     1    1
     2     9     8   ar
     3     9     2   ar
     4     1    16    1
     5     1     2    1
     6     1    18    1
     7     8     7   ar
     8     2     3   ar
     9    19    11    1
    10     7     3   ar
    11     7    10    1
    12     3     4    1
    13    11    10   ar
    14    11    12   ar
    15    10    15   ar
    16     4     6   ar
    17     4     5   ar
    18    20    12    1
    19    12    13   ar
    20    15    23    1
    21    15    14   ar
    22    13    14   ar
    23    13    21    1
    24    14    22    1
