@<TRIPOS>MOLECULE
/home/pku/3cl/gett_pdb/6W5J/6W5J_mol2/ligand/6W5J_TKS.pdb
 36 38 0 0 0
SMALL
GASTEIGER

@<TRIPOS>ATOM
      1  C10       -2.1170   -5.0480  -52.6940 C.3   201  TKS201      0.0001
      2  C12       -3.9640   -3.4110  -53.4730 C.3   201  TKS201      0.0000
      3  C13       -3.3750   -2.3340  -52.5730 C.3   201  TKS201      0.0000
      4  C15        0.6560   -4.1750  -48.6810 C.2   201  TKS201      0.2614
      5  C11       -3.1020   -4.6310  -53.7730 C.3   201  TKS201      0.0000
      6  C14       -2.4940   -2.8760  -51.4540 C.3   201  TKS201      0.0001
      7  C17        0.4150   -4.5180  -46.1700 C.3   201  TKS201      0.1287
      8  C18        0.9970   -3.4500  -45.2660 C.3   201  TKS201      0.0335
      9  C20        2.9390   -1.9460  -44.9130 C.2   201  TKS201      0.2410
     10  C22        4.6470   -3.1680  -46.0510 C.3   201  TKS201      0.1156
     11  C23        3.2800   -3.8640  -46.2400 C.3   201  TKS201      0.0326
     12  C25       -0.8350   -5.1360  -45.5200 C.3   201  TKS201      0.2036
     13  C29        6.5940   -0.3620  -51.4380 C.3   201  TKS201      0.0081
     14  C01        5.4190   -1.8210  -53.0760 C.3   201  TKS201      0.0081
     15  C02        5.2320   -0.8230  -51.9320 C.3   201  TKS201      0.0594
     16  C03        4.4590   -1.5160  -50.8070 C.3   201  TKS201      0.2139
     17  C05        2.2020   -2.1470  -50.4060 C.2   201  TKS201      0.4215
     18  C07        0.1350   -3.5290  -49.9730 C.3   201  TKS201      0.1761
     19  C08       -0.7590   -4.5150  -50.6950 C.3   201  TKS201      0.0312
     20  C09       -1.4680   -3.9070  -51.9140 C.3   201  TKS201      0.0022
     21  C19        2.2470   -2.8130  -45.8640 C.3   201  TKS201      0.0818
     22  C30        4.4060    0.3850  -52.3760 C.ar  201  TKS201     -0.0185
     23  C31        3.8310    1.1970  -51.4050 C.ar  201  TKS201      0.0072
     24  C32        3.0750    2.2970  -51.7570 C.ar  201  TKS201      0.0574
     25  C34        2.8910    2.6000  -53.1000 C.ar  201  TKS201      0.0114
     26  C35        3.4660    1.7950  -54.0790 C.ar  201  TKS201      0.0005
     27  C36        4.2240    0.6870  -53.7190 C.ar  201  TKS201     -0.0041
     28  N06        1.3040   -3.2130  -50.7740 N.am  201  TKS201     -0.1611
     29  N16       -0.0420   -3.9260  -47.4320 N.am  201  TKS201     -0.2030
     30  N21        4.4270   -2.1620  -45.0530 N.am  201  TKS201     -0.2054
     31  O04        3.2020   -1.8140  -51.3340 O.3   201  TKS201     -0.4332
     32  O24        2.4230   -1.1720  -44.1760 O.2   201  TKS201     -0.2734
     33  O26       -1.2610   -6.2280  -46.3050 O.3   201  TKS201     -0.2185
     34  O27        1.6250   -4.8770  -48.7170 O.2   201  TKS201     -0.2715
     35  O28        2.1090   -1.5780  -49.3640 O.2   201  TKS201     -0.2246
     36 CL3         2.3390    3.3110  -50.4800 Cl    201  TKS201     -0.0823
@<TRIPOS>BOND
     1    26    27   ar
     2    26    25   ar
     3     5     2    1
     4     5     1    1
     5    27    22   ar
     6     2     3    1
     7    25    24   ar
     8    14    15    1
     9     1    20    1
    10     3     6    1
    11    22    15    1
    12    22    23   ar
    13    15    13    1
    14    15    16    1
    15    20     6    1
    16    20    19    1
    17    24    23   ar
    18    24    36    1
    19    31    16    1
    20    31    17    1
    21    28    17   am
    22    28    18    1
    23    19    18    1
    24    17    35    2
    25    18     4    1
    26    34     4    2
    27     4    29   am
    28    29     7    1
    29    33    12    1
    30    11    10    1
    31    11    21    1
    32     7    12    1
    33     7     8    1
    34    10    30    1
    35    21     8    1
    36    21     9    1
    37    30     9   am
    38     9    32    2
