R98
  -OEChem-02242320033D

 37 40  0     1  0  0  0  0  0999 V2000
    3.4040   -2.4640    0.1220 C   0  0  0  0  0  0  0  0  0  0  0  0
    3.1420   -0.0920   -0.1370 C   0  0  0  0  0  0  0  0  0  0  0  0
    3.9540   -1.2210   -0.1240 C   0  0  0  0  0  0  0  0  0  0  0  0
    2.2640    1.9930   -0.2540 C   0  0  0  0  0  0  0  0  0  0  0  0
    0.7820    3.7570   -0.2400 C   0  0  0  0  0  0  0  0  0  0  0  0
   -0.0900    1.6590    0.1560 C   0  0  0  0  0  0  0  0  0  0  0  0
    2.0420   -2.5990    0.3520 C   0  0  0  0  0  0  0  0  0  0  0  0
   -1.7470    1.1470    1.7450 C   0  0  0  0  0  0  0  0  0  0  0  0
   -2.1900    0.9460   -0.6270 C   0  0  0  0  0  0  0  0  0  0  0  0
   -3.2290   -0.1270   -0.4310 C   0  0  0  0  0  0  0  0  0  0  0  0
   -4.3920    0.1660    0.2560 C   0  0  0  0  0  0  0  0  0  0  0  0
   -5.3450   -0.8270    0.4260 C   0  0  0  0  0  0  0  0  0  0  0  0
   -5.0910   -2.0830   -0.1040 C   0  0  0  0  0  0  0  0  0  0  0  0
   -3.9050   -2.3020   -0.7800 C   0  0  0  0  0  0  0  0  0  0  0  0
    1.2230   -1.4910    0.3420 C   0  0  0  0  0  0  0  0  0  0  0  0
    1.7660   -0.2300    0.1000 C   0  0  0  0  0  0  0  0  0  0  0  0
    1.1960    1.1240    0.0210 C   0  0  0  0  0  0  0  0  0  0  0  0
    4.1980   -3.5570    0.1340 F   0  0  0  0  0  0  0  0  0  0  0  0
   -1.1730    0.8410    0.4280 N   0  0  1  0  0  0  0  0  0  0  0  0
   -3.0220   -1.3330   -0.9220 N   0  0  0  0  0  0  0  0  0  0  0  0
   -0.2480    2.9740    0.0180 N   0  0  0  0  0  0  0  0  0  0  0  0
    2.0070    3.2950   -0.3750 N   0  0  0  0  0  0  0  0  0  0  0  0
    3.4140    1.2490   -0.3510 N   0  0  0  0  0  0  0  0  0  0  0  0
    5.0140   -1.1260   -0.3060 H   0  0  0  0  0  0  0  0  0  0  0  0
    0.6130    4.8180   -0.3460 H   0  0  0  0  0  0  0  0  0  0  0  0
    1.6220   -3.5760    0.5390 H   0  0  0  0  0  0  0  0  0  0  0  0
   -2.4780    0.3840    2.0090 H   0  0  0  0  0  0  0  0  0  0  0  0
   -0.9540    1.1640    2.4920 H   0  0  0  0  0  0  0  0  0  0  0  0
   -2.2350    2.1210    1.7110 H   0  0  0  0  0  0  0  0  0  0  0  0
   -1.7170    0.8200   -1.6010 H   0  0  0  0  0  0  0  0  0  0  0  0
   -2.6650    1.9260   -0.5780 H   0  0  0  0  0  0  0  0  0  0  0  0
   -4.5560    1.1550    0.6570 H   0  0  0  0  0  0  0  0  0  0  0  0
   -6.2620   -0.6270    0.9600 H   0  0  0  0  0  0  0  0  0  0  0  0
   -5.8110   -2.8800    0.0100 H   0  0  0  0  0  0  0  0  0  0  0  0
   -3.7000   -3.2770   -1.1960 H   0  0  0  0  0  0  0  0  0  0  0  0
    0.1640   -1.5990    0.5210 H   0  0  0  0  0  0  0  0  0  0  0  0
    4.2940    1.6120   -0.5380 H   0  0  0  0  0  0  0  0  0  0  0  0
 12 13  2  0  0  0  0
 11 12  1  0  0  0  0
 13 14  1  0  0  0  0
 10 11  2  0  0  0  0
 14 20  2  0  0  0  0
 10 20  1  0  0  0  0
  9 10  1  0  0  0  0
  8 19  1  0  0  0  0
  9 19  1  0  0  0  0
  6 19  1  0  0  0  0
  7 15  2  0  0  0  0
 15 16  1  0  0  0  0
  1  7  1  0  0  0  0
  6 21  2  0  0  0  0
  6 17  1  0  0  0  0
 16 17  1  0  0  0  0
  2 16  2  0  0  0  0
  5 21  1  0  0  0  0
  4 17  2  0  0  0  0
  1 18  1  0  0  0  0
  1  3  2  0  0  0  0
  2  3  1  0  0  0  0
  2 23  1  0  0  0  0
  5 22  2  0  0  0  0
  4 22  1  0  0  0  0
  4 23  1  0  0  0  0
  3 24  1  0  0  0  0
  5 25  1  0  0  0  0
  7 26  1  0  0  0  0
  8 27  1  0  0  0  0
  8 28  1  0  0  0  0
  8 29  1  0  0  0  0
  9 30  1  0  0  0  0
  9 31  1  0  0  0  0
 11 32  1  0  0  0  0
 12 33  1  0  0  0  0
 13 34  1  0  0  0  0
 14 35  1  0  0  0  0
 15 36  1  0  0  0  0
 23 37  1  0  0  0  0
M  END
> <OPENEYE_ISO_SMILES>
C[N@@](Cc1ccccn1)c2c3c4ccc(cc4[nH]c3ncn2)F

> <OPENEYE_INCHI>
InChI=1S/C17H14FN5/c1-23(9-12-4-2-3-7-19-12)17-15-13-6-5-11(18)8-14(13)22-16(15)20-10-21-17/h2-8,10H,9H2,1H3,(H,20,21,22)

> <OPENEYE_INCHIKEY>
REQNIKUYNKHSBT-UHFFFAOYSA-N

> <FORMULA>
C17H14FN5

$$$$
