YSJ
  -OEChem-02242320043D

 55 59  0     0  0  0  0  0  0999 V2000
    6.3630    1.3740   -2.8060 C   0  0  0  0  0  0  0  0  0  0  0  0
    3.2210   -1.2200    0.1790 C   0  0  0  0  0  0  0  0  0  0  0  0
    2.2940   -2.9350    1.5510 C   0  0  0  0  0  0  0  0  0  0  0  0
    2.5180   -5.3570    2.7730 C   0  0  0  0  0  0  0  0  0  0  0  0
    1.9960   -5.3010    1.4930 C   0  0  0  0  0  0  0  0  0  0  0  0
    1.8780   -4.0730    0.8640 C   0  0  0  0  0  0  0  0  0  0  0  0
   -1.4570    0.7570    0.3080 C   0  0  0  0  0  0  0  0  0  0  0  0
   -2.5850    1.5310    0.5240 C   0  0  0  0  0  0  0  0  0  0  0  0
   -3.8240   -0.1240   -0.6510 C   0  0  0  0  0  0  0  0  0  0  0  0
   -5.5150   -1.5730   -1.7970 C   0  0  0  0  0  0  0  0  0  0  0  0
   -6.8120   -1.8440   -2.1950 C   0  0  0  0  0  0  0  0  0  0  0  0
   -7.8270   -0.9560   -1.8910 C   0  0  0  0  0  0  0  0  0  0  0  0
   -6.2520    0.4700   -0.7870 C   0  0  0  0  0  0  0  0  0  0  0  0
   -2.4830    2.7290    1.2200 C   0  0  0  0  0  0  0  0  0  0  0  0
   -1.2540    3.1540    1.6980 C   0  0  0  0  0  0  0  0  0  0  0  0
    2.8080   -3.0720    2.8330 C   0  0  0  0  0  0  0  0  0  0  0  0
    1.1010   -0.9230    1.1590 C   0  0  0  0  0  0  0  0  0  0  0  0
   -0.1250    2.3880    1.4860 C   0  0  0  0  0  0  0  0  0  0  0  0
   -5.2360   -0.4170   -1.0900 C   0  0  0  0  0  0  0  0  0  0  0  0
   -7.5460    0.2020   -1.1900 C   0  0  0  0  0  0  0  0  0  0  0  0
   -0.2210    1.1840    0.7880 C   0  0  0  0  0  0  0  0  0  0  0  0
    0.9890    0.3570    0.5650 C   0  0  0  0  0  0  0  0  0  0  0  0
    2.0200    0.8250   -0.2310 C   0  0  0  0  0  0  0  0  0  0  0  0
    3.1560    0.0140   -0.4230 C   0  0  0  0  0  0  0  0  0  0  0  0
    4.2770    0.4900   -1.2710 C   0  0  0  0  0  0  0  0  0  0  0  0
    5.0360    1.6940   -0.9090 C   0  0  0  0  0  0  0  0  0  0  0  0
    4.6280   -0.1790   -2.4050 C   0  0  0  0  0  0  0  0  0  0  0  0
   -3.5850    3.4830    1.4300 F   0  0  0  0  0  0  0  0  0  0  0  0
    6.0550    2.0810   -1.7050 N   0  0  0  0  0  0  0  0  0  0  0  0
    5.6760    0.2740   -3.1560 N   0  0  0  0  0  0  0  0  0  0  0  0
    2.2000   -1.6710    0.9540 N   0  0  0  0  0  0  0  0  0  0  0  0
    2.9030   -4.2600    3.3960 N   0  0  0  0  0  0  0  0  0  0  0  0
    4.7590    2.3240    0.0950 O   0  0  0  0  0  0  0  0  0  0  0  0
    7.2850    1.7430   -3.5070 O   0  0  0  0  0  0  0  0  0  0  0  0
    0.1970   -1.3490    1.8590 O   0  0  0  0  0  0  0  0  0  0  0  0
   -3.7930    1.1170    0.0560 O   0  0  0  0  0  0  0  0  0  0  0  0
   -1.1340    4.6530    2.5660 Cl  0  0  0  0  0  0  0  0  0  0  0  0
   -4.2390   -2.6870   -2.1780 Cl  0  0  0  0  0  0  0  0  0  0  0  0
    4.0930   -1.8410    0.0310 H   0  0  0  0  0  0  0  0  0  0  0  0
    2.6120   -6.3120    3.2680 H   0  0  0  0  0  0  0  0  0  0  0  0
    1.6840   -6.2050    0.9910 H   0  0  0  0  0  0  0  0  0  0  0  0
    1.4730   -4.0000   -0.1350 H   0  0  0  0  0  0  0  0  0  0  0  0
   -1.5360   -0.1760   -0.2290 H   0  0  0  0  0  0  0  0  0  0  0  0
   -3.4740   -0.9240    0.0030 H   0  0  0  0  0  0  0  0  0  0  0  0
   -3.1770   -0.0610   -1.5250 H   0  0  0  0  0  0  0  0  0  0  0  0
   -7.0310   -2.7480   -2.7430 H   0  0  0  0  0  0  0  0  0  0  0  0
   -8.8400   -1.1680   -2.2020 H   0  0  0  0  0  0  0  0  0  0  0  0
   -6.0340    1.3730   -0.2350 H   0  0  0  0  0  0  0  0  0  0  0  0
    3.1340   -2.1960    3.3750 H   0  0  0  0  0  0  0  0  0  0  0  0
    0.8320    2.7220    1.8590 H   0  0  0  0  0  0  0  0  0  0  0  0
   -8.3400    0.8950   -0.9530 H   0  0  0  0  0  0  0  0  0  0  0  0
    1.9540    1.7970   -0.6980 H   0  0  0  0  0  0  0  0  0  0  0  0
    4.0900   -1.0680   -2.7010 H   0  0  0  0  0  0  0  0  0  0  0  0
    6.5680    2.8740   -1.4810 H   0  0  0  0  0  0  0  0  0  0  0  0
    5.9300   -0.2090   -3.9580 H   0  0  0  0  0  0  0  0  0  0  0  0
 11 12  2  0  0  0  0
 12 20  1  0  0  0  0
 10 11  1  0  0  0  0
 13 20  2  0  0  0  0
 10 38  1  0  0  0  0
 10 19  2  0  0  0  0
 13 19  1  0  0  0  0
  9 19  1  0  0  0  0
 14 28  1  0  0  0  0
  9 36  1  0  0  0  0
  8 36  1  0  0  0  0
  8 14  2  0  0  0  0
 14 15  1  0  0  0  0
  7  8  1  0  0  0  0
 15 37  1  0  0  0  0
 15 18  2  0  0  0  0
  7 21  2  0  0  0  0
 18 21  1  0  0  0  0
 21 22  1  0  0  0  0
 17 35  2  0  0  0  0
 17 22  1  0  0  0  0
 22 23  2  0  0  0  0
 17 31  1  0  0  0  0
 23 24  1  0  0  0  0
  3 31  1  0  0  0  0
  2 31  1  0  0  0  0
  3 16  2  0  0  0  0
  3  6  1  0  0  0  0
 16 32  1  0  0  0  0
  2 24  2  0  0  0  0
 24 25  1  0  0  0  0
  5  6  2  0  0  0  0
  4 32  2  0  0  0  0
  4  5  1  0  0  0  0
 25 27  2  0  0  0  0
 27 30  1  0  0  0  0
 25 26  1  0  0  0  0
  1 30  1  0  0  0  0
 26 33  2  0  0  0  0
 26 29  1  0  0  0  0
  1 29  1  0  0  0  0
  1 34  2  0  0  0  0
  2 39  1  0  0  0  0
  4 40  1  0  0  0  0
  5 41  1  0  0  0  0
  6 42  1  0  0  0  0
  7 43  1  0  0  0  0
  9 44  1  0  0  0  0
  9 45  1  0  0  0  0
 11 46  1  0  0  0  0
 12 47  1  0  0  0  0
 13 48  1  0  0  0  0
 16 49  1  0  0  0  0
 18 50  1  0  0  0  0
 20 51  1  0  0  0  0
 23 52  1  0  0  0  0
 27 53  1  0  0  0  0
 29 54  1  0  0  0  0
 30 55  1  0  0  0  0
M  END
> <OPENEYE_ISO_SMILES>
c1ccc(c(c1)COc2cc(cc(c2F)Cl)c3cc(cn(c3=O)c4cccnc4)c5c[nH]c(=O)[nH]c5=O)Cl

> <OPENEYE_INCHI>
InChI=1S/C27H17Cl2FN4O4/c28-21-6-2-1-4-15(21)14-38-23-10-16(9-22(29)24(23)30)19-8-17(20-12-32-27(37)33-25(20)35)13-34(26(19)36)18-5-3-7-31-11-18/h1-13H,14H2,(H2,32,33,35,37)

> <OPENEYE_INCHIKEY>
FBYZCSUBKCAJAK-UHFFFAOYSA-N

> <FORMULA>
C27H17Cl2FN4O4

$$$$
