3BL
  -OEChem-02242320003D

 69 73  0     1  0  0  0  0  0999 V2000
   -1.1580   -0.1630    1.4310 C   0  0  0  0  0  0  0  0  0  0  0  0
    5.1920    2.1900    2.0020 O   0  0  0  0  0  0  0  0  0  0  0  0
   -1.4730    0.4130    0.1980 C   0  0  0  0  0  0  0  0  0  0  0  0
   -2.7880    0.5110   -0.1990 C   0  0  0  0  0  0  0  0  0  0  0  0
   -3.8050    0.0350    0.6290 C   0  0  0  0  0  0  0  0  0  0  0  0
   -5.2200    0.1420    0.2010 C   0  0  0  0  0  0  0  0  0  0  0  0
   -5.5370    0.7120   -1.0310 C   0  0  0  0  0  0  0  0  0  0  0  0
    5.0710    2.6410    0.8880 C   0  0  0  0  0  0  0  0  0  0  0  0
    3.8790    2.2630    0.0480 C   0  0  2  0  0  0  0  0  0  0  0  0
    3.0860    3.5220   -0.3100 C   0  0  0  0  0  0  0  0  0  0  0  0
    1.9660    3.1600   -1.2500 C   0  0  0  0  0  0  0  0  0  0  0  0
    0.6700    2.8830   -0.9070 N   0  0  0  0  0  0  0  0  0  0  0  0
    0.0040    2.6110   -2.0500 C   0  0  0  0  0  0  0  0  0  0  0  0
    0.8340    2.7120   -3.0520 N   0  0  0  0  0  0  0  0  0  0  0  0
    2.0460    3.0540   -2.5900 C   0  0  0  0  0  0  0  0  0  0  0  0
    3.0190    1.3410    0.8030 N   0  0  0  0  0  0  0  0  0  0  0  0
    3.4810   -0.0460    0.6600 C   0  0  0  0  0  0  0  0  0  0  0  0
    2.5630   -0.9740    1.4590 C   0  0  2  0  0  0  0  0  0  0  0  0
    2.9650   -2.4310    1.2120 C   0  0  0  0  0  0  0  0  0  0  0  0
    2.7190   -2.7840   -0.2570 C   0  0  1  0  0  0  0  0  0  0  0  0
    3.1500   -4.2320   -0.5050 C   0  0  0  0  0  0  0  0  0  0  0  0
    2.9020   -4.5960   -1.9700 C   0  0  0  0  0  0  0  0  0  0  0  0
    1.4120   -4.4500   -2.2840 C   0  0  0  0  0  0  0  0  0  0  0  0
    0.9810   -3.0020   -2.0410 C   0  0  0  0  0  0  0  0  0  0  0  0
    1.2300   -2.6330   -0.5760 C   0  0  2  0  0  0  0  0  0  0  0  0
    0.8060   -1.1780   -0.3460 C   0  0  0  0  0  0  0  0  0  0  0  0
    1.1730   -0.7880    1.0210 N   0  0  0  0  0  0  0  0  0  0  0  0
    0.2520   -0.2690    1.8580 C   0  0  0  0  0  0  0  0  0  0  0  0
    0.5830    0.1120    2.9640 O   0  0  0  0  0  0  0  0  0  0  0  0
   -2.1770   -0.6350    2.2620 C   0  0  0  0  0  0  0  0  0  0  0  0
   -3.4900   -0.5410    1.8600 C   0  0  0  0  0  0  0  0  0  0  0  0
   -6.2390   -0.3330    1.0260 C   0  0  0  0  0  0  0  0  0  0  0  0
   -7.5540   -0.2310    0.6210 C   0  0  0  0  0  0  0  0  0  0  0  0
   -7.8630    0.3400   -0.6000 C   0  0  0  0  0  0  0  0  0  0  0  0
   -6.8560    0.8080   -1.4250 C   0  0  0  0  0  0  0  0  0  0  0  0
   -0.6870    0.7830   -0.4430 H   0  0  0  0  0  0  0  0  0  0  0  0
   -3.0320    0.9570   -1.1520 H   0  0  0  0  0  0  0  0  0  0  0  0
   -4.7520    1.0780   -1.6760 H   0  0  0  0  0  0  0  0  0  0  0  0
    5.8170    3.3160    0.4950 H   0  0  0  0  0  0  0  0  0  0  0  0
    4.2190    1.7760   -0.8660 H   0  0  0  0  0  0  0  0  0  0  0  0
    2.6720    3.9600    0.5980 H   0  0  0  0  0  0  0  0  0  0  0  0
    3.7470    4.2420   -0.7920 H   0  0  0  0  0  0  0  0  0  0  0  0
    0.3000    2.8810   -0.0110 H   0  0  0  0  0  0  0  0  0  0  0  0
   -1.0420    2.3520   -2.1220 H   0  0  0  0  0  0  0  0  0  0  0  0
    2.9320    3.2100   -3.1880 H   0  0  0  0  0  0  0  0  0  0  0  0
    2.9700    1.6080    1.7750 H   0  0  0  0  0  0  0  0  0  0  0  0
    3.4580   -0.3300   -0.3920 H   0  0  0  0  0  0  0  0  0  0  0  0
    4.5000   -0.1300    1.0370 H   0  0  0  0  0  0  0  0  0  0  0  0
    2.6480   -0.7460    2.5220 H   0  0  0  0  0  0  0  0  0  0  0  0
    4.0220   -2.5610    1.4450 H   0  0  0  0  0  0  0  0  0  0  0  0
    2.3700   -3.0850    1.8490 H   0  0  0  0  0  0  0  0  0  0  0  0
    3.2990   -2.1170   -0.8940 H   0  0  0  0  0  0  0  0  0  0  0  0
    4.2110   -4.3380   -0.2790 H   0  0  0  0  0  0  0  0  0  0  0  0
    2.5740   -4.8980    0.1380 H   0  0  0  0  0  0  0  0  0  0  0  0
    3.4770   -3.9290   -2.6130 H   0  0  0  0  0  0  0  0  0  0  0  0
    3.2110   -5.6260   -2.1450 H   0  0  0  0  0  0  0  0  0  0  0  0
    1.2330   -4.7110   -3.3270 H   0  0  0  0  0  0  0  0  0  0  0  0
    0.8370   -5.1140   -1.6390 H   0  0  0  0  0  0  0  0  0  0  0  0
    1.5570   -2.3380   -2.6850 H   0  0  0  0  0  0  0  0  0  0  0  0
   -0.0800   -2.8960   -2.2660 H   0  0  0  0  0  0  0  0  0  0  0  0
    0.6490   -3.2920    0.0690 H   0  0  0  0  0  0  0  0  0  0  0  0
    1.3180   -0.5320   -1.0600 H   0  0  0  0  0  0  0  0  0  0  0  0
   -0.2720   -1.0870   -0.4780 H   0  0  0  0  0  0  0  0  0  0  0  0
   -1.9340   -1.0810    3.2150 H   0  0  0  0  0  0  0  0  0  0  0  0
   -4.2780   -0.9090    2.5010 H   0  0  0  0  0  0  0  0  0  0  0  0
   -5.9980   -0.7790    1.9790 H   0  0  0  0  0  0  0  0  0  0  0  0
   -8.3440   -0.5990    1.2600 H   0  0  0  0  0  0  0  0  0  0  0  0
   -8.8940    0.4160   -0.9130 H   0  0  0  0  0  0  0  0  0  0  0  0
   -7.1030    1.2490   -2.3790 H   0  0  0  0  0  0  0  0  0  0  0  0
  7 35  2  0  0  0  0
 34 35  1  0  0  0  0
  6  7  1  0  0  0  0
 33 34  2  0  0  0  0
  5  6  1  0  0  0  0
  6 32  2  0  0  0  0
 32 33  1  0  0  0  0
 14 15  1  0  0  0  0
 13 14  2  0  0  0  0
  5 31  2  0  0  0  0
 30 31  1  0  0  0  0
  4  5  1  0  0  0  0
 11 15  2  0  0  0  0
  1 30  2  0  0  0  0
 12 13  1  0  0  0  0
  3  4  2  0  0  0  0
 28 29  2  0  0  0  0
  1  3  1  0  0  0  0
  1 28  1  0  0  0  0
  2  8  2  0  0  0  0
 11 12  1  0  0  0  0
 10 11  1  0  0  0  0
 27 28  1  0  0  0  0
  8  9  1  0  0  0  0
  9 10  1  0  0  0  0
  9 16  1  0  0  0  0
 18 27  1  0  0  0  0
 26 27  1  0  0  0  0
 16 17  1  0  0  0  0
 17 18  1  0  0  0  0
 18 19  1  0  0  0  0
 25 26  1  0  0  0  0
 19 20  1  0  0  0  0
 20 25  1  0  0  0  0
 24 25  1  0  0  0  0
 20 21  1  0  0  0  0
 23 24  1  0  0  0  0
 21 22  1  0  0  0  0
 22 23  1  0  0  0  0
  3 36  1  0  0  0  0
  4 37  1  0  0  0  0
  7 38  1  0  0  0  0
  8 39  1  0  0  0  0
  9 40  1  0  0  0  0
 10 41  1  0  0  0  0
 10 42  1  0  0  0  0
 12 43  1  0  0  0  0
 13 44  1  0  0  0  0
 15 45  1  0  0  0  0
 16 46  1  0  0  0  0
 17 47  1  0  0  0  0
 17 48  1  0  0  0  0
 18 49  1  0  0  0  0
 19 50  1  0  0  0  0
 19 51  1  0  0  0  0
 20 52  1  0  0  0  0
 21 53  1  0  0  0  0
 21 54  1  0  0  0  0
 22 55  1  0  0  0  0
 22 56  1  0  0  0  0
 23 57  1  0  0  0  0
 23 58  1  0  0  0  0
 24 59  1  0  0  0  0
 24 60  1  0  0  0  0
 25 61  1  0  0  0  0
 26 62  1  0  0  0  0
 26 63  1  0  0  0  0
 30 64  1  0  0  0  0
 31 65  1  0  0  0  0
 32 66  1  0  0  0  0
 33 67  1  0  0  0  0
 34 68  1  0  0  0  0
 35 69  1  0  0  0  0
M  END
> <OPENEYE_ISO_SMILES>
c1ccc(cc1)c2ccc(cc2)C(=O)N3C[C@H]4CCCC[C@@H]4C[C@H]3CN[C@@H](Cc5cnc[nH]5)C=O

> <OPENEYE_INCHI>
InChI=1S/C29H34N4O2/c34-19-27(15-26-16-30-20-32-26)31-17-28-14-24-8-4-5-9-25(24)18-33(28)29(35)23-12-10-22(11-13-23)21-6-2-1-3-7-21/h1-3,6-7,10-13,16,19-20,24-25,27-28,31H,4-5,8-9,14-15,17-18H2,(H,30,32)/t24-,25-,27+,28+/m1/s1

> <OPENEYE_INCHIKEY>
VZCULZJNALRGNB-CZJMETBBSA-N

> <FORMULA>
C29H34N4O2

$$$$
