@<TRIPOS>MOLECULE
/home/pku/3cl/gett_pdb/7SET/7SET_mol2/ligand/7SET_I70.pdb
 39 41 0 0 0
SMALL
GASTEIGER

@<TRIPOS>ATOM
      1  C1        18.2570   10.9020   21.8630 C.2   401  I70401      0.5761
      2  C11       20.1110   15.2340   29.2040 C.3   401  I70401      0.1727
      3  C12       19.3170   15.1450   27.9080 C.2   401  I70401      0.2459
      4  C13       21.0640   16.5630   26.7490 C.3   401  I70401      0.0939
      5  C14       19.1530   15.5780   25.5500 C.3   401  I70401      0.1535
      6  C15       19.3190   14.1370   25.0880 C.2   401  I70401      0.2595
      7  C16       21.0250   17.1750   25.3720 C.3   401  I70401      0.0220
      8  C17       18.2040   12.1890   24.0590 C.3   401  I70401      0.1410
      9  C18       19.8530   18.0210   24.9260 C.3   401  I70401      0.0037
     10  C19       17.2300   11.3330   24.8660 C.3   401  I70401      0.0342
     11  C20       17.6110   11.0810   26.3400 C.3   401  I70401      0.0818
     12  C21       18.8190   10.1940   26.6290 C.3   401  I70401      0.0326
     13  C22       18.4530    9.4570   27.9100 C.3   401  I70401      0.1156
     14  C23       20.0870   18.9330   23.7350 C.3   401  I70401      0.0001
     15  C24       16.4850   10.3850   27.0990 C.2   401  I70401      0.2410
     16  C25       18.8940   18.6000   25.9420 C.3   401  I70401      0.0001
     17  C26       21.6000   14.1170   30.8590 C.3   401  I70401      0.0022
     18  C27       17.4930   18.6290   33.4380 C.3   401  I70401      0.0218
     19  C28       19.9650   18.7900   33.2730 C.3   401  I70401      0.0218
     20  C29       18.4730   19.7660   31.4910 C.3   401  I70401      0.0218
     21  C30       20.7050   13.8890   29.6380 C.3   401  I70401      0.0270
     22  C31       19.6130   12.8890   30.0230 C.3   401  I70401      0.0022
     23  C32       21.5440   13.2550   28.5320 C.3   401  I70401      0.0022
     24  C34       19.8650   16.5370   24.6190 C.3   401  I70401      0.0289
     25  C7        18.6710   18.6310   32.4850 C.3   401  I70401      0.0804
     26  C8        17.9420   12.2200   22.5350 C.3   401  I70401      0.3143
     27  C9        19.5730   16.9590   30.8420 C.2   401  I70401      0.3395
     28  N10       19.2260   15.8520   30.1700 N.am  401  I70401     -0.1796
     29  N13       19.8320   15.7550   26.8310 N.am  401  I70401     -0.2716
     30  N16       18.2270   13.5680   24.5680 N.am  401  I70401     -0.2024
     31  N2        19.4110   10.8780   20.9460 N.am  401  I70401      0.4881
     32  N23       16.9940    9.4250   27.8680 N.am  401  I70401     -0.2054
     33  N8        18.6830   17.3440   31.7660 N.am  401  I70401     -0.1906
     34  O26       15.2960   10.6810   27.0270 O.2   401  I70401     -0.2734
     35  O29       20.6740   17.5000   30.6490 O.2   401  I70401     -0.2492
     36  O33       18.2470   14.5290   27.8660 O.2   401  I70401     -0.2730
     37  O38       20.4080   13.5770   25.2100 O.2   401  I70401     -0.2716
     38  O5        17.6560    9.9150   22.1100 O.2   401  I70401     -0.2019
     39  O9        18.9110   13.1240   22.0350 O.3   401  I70401     -0.2051
@<TRIPOS>UNITY_ATOM_ATTR
31 1
charge 1
@<TRIPOS>BOND
     1    31     1    1
     2     1    38    2
     3     1    26    1
     4    39    26    1
     5    26     8    1
     6    14     9    1
     7     8    30    1
     8     8    10    1
     9    30     6   am
    10    24     9    1
    11    24     7    1
    12    24     5    1
    13    10    11    1
    14     9     7    1
    15     9    16    1
    16     6    37    2
    17     6     5    1
    18     7     4    1
    19     5    29    1
    20    11    12    1
    21    11    15    1
    22    12    13    1
    23     4    29    1
    24    29     3   am
    25    34    15    2
    26    15    32   am
    27    36     3    2
    28    32    13    1
    29     3     2    1
    30    23    21    1
    31     2    21    1
    32     2    28    1
    33    21    22    1
    34    21    17    1
    35    28    27   am
    36    35    27    2
    37    27    33   am
    38    20    25    1
    39    33    25    1
    40    25    19    1
    41    25    18    1
