ATO
  -OEChem-02242320013D

 10  9  0     0  0  0  0  0  0999 V2000
   -0.4600    0.0000    2.4200 C   0  0  0  0  0  0  0  0  0  0  0  0
    0.0590    0.0000    1.0060 C   0  0  0  0  0  0  0  0  0  0  0  0
   -0.9050    0.0000   -0.1510 C   0  0  0  0  0  0  0  0  0  0  0  0
    1.2490    0.0000    0.8000 O   0  0  0  0  0  0  0  0  0  0  0  0
    0.0150    0.0000   -1.7010 Cl  0  0  0  0  0  0  0  0  0  0  0  0
    0.3790    0.0000    3.1160 H   0  0  0  0  0  0  0  0  0  0  0  0
   -1.0670    0.8900    2.5840 H   0  0  0  0  0  0  0  0  0  0  0  0
   -1.0670   -0.8900    2.5840 H   0  0  0  0  0  0  0  0  0  0  0  0
   -1.5320   -0.8900   -0.1010 H   0  0  0  0  0  0  0  0  0  0  0  0
   -1.5320    0.8900   -0.1010 H   0  0  0  0  0  0  0  0  0  0  0  0
  1  2  1  0  0  0  0
  1  6  1  0  0  0  0
  1  7  1  0  0  0  0
  1  8  1  0  0  0  0
  2  3  1  0  0  0  0
  2  4  2  0  0  0  0
  3  5  1  0  0  0  0
  3  9  1  0  0  0  0
  3 10  1  0  0  0  0
M  END
> <OPENEYE_ISO_SMILES>
CC(=O)CCl

> <OPENEYE_INCHI>
InChI=1S/C3H5ClO/c1-3(5)2-4/h2H2,1H3

> <OPENEYE_INCHIKEY>
BULLHNJGPPOUOX-UHFFFAOYSA-N

> <FORMULA>
C3H5ClO

$$$$
