@<TRIPOS>MOLECULE
/home/pku/3cl/gett_pdb/7AIJ/7AIJ_mol2/ligand/7AIJ_MRG.pdb
 22 24 0 0 0
SMALL
GASTEIGER

@<TRIPOS>ATOM
      1  P         -6.6340   18.5840  177.0940 P.3   817  MRG817      0.5411
      2  OP1       -7.6020   19.4200  176.3500 O.2   817  MRG817     -0.2272
      3  OP2       -5.4470   18.0470  176.3920 O.2   817  MRG817     -0.2272
      4  O5'       -6.1320   19.4050  178.3740 O.3   817  MRG817     -0.2722
      5  N9        -4.7020   18.5370  182.1660 N.ar  817  MRG817     -0.2713
      6  C4        -3.9550   18.0500  183.2140 C.ar  817  MRG817      0.1722
      7  N3        -3.9870   18.5020  184.4910 N.ar  817  MRG817     -0.1918
      8  C2        -3.1570   17.8270  185.2750 C.ar  817  MRG817      0.2606
      9  N1        -2.3600   16.7940  184.8420 N.ar  817  MRG817     -0.1709
     10  C6        -2.3150   16.3160  183.5340 C.ar  817  MRG817      0.3023
     11  O6        -1.5610   15.3770  183.2430 O.2   817  MRG817     -0.2633
     12  C5        -3.1970   17.0280  182.6860 C.ar  817  MRG817      0.1748
     13  N7        -3.4550   16.8750  181.3290 N.ar  817  MRG817     -0.2173
     14  C8        -4.3480   17.7900  181.0680 C.ar  817  MRG817      0.1816
     15  N2        -3.0630   18.1460  186.5740 N.pl3 817  MRG817     -0.0859
     16  C2'       -5.0010   21.0140  182.0670 C.3   817  MRG817      0.0894
     17  C5'       -6.9580   20.4260  178.9230 C.3   817  MRG817      0.1851
     18  C4'       -6.5890   20.7240  180.3670 C.3   817  MRG817      0.1776
     19  O4'       -6.5790   19.5010  181.1380 O.3   817  MRG817     -0.3326
     20  C1'       -5.6590   19.6380  182.2140 C.3   817  MRG817      0.2095
     21  C3'       -5.2050   21.2990  180.5850 C.3   817  MRG817      0.1859
     22  O3'       -5.1970   22.6940  180.3170 O.3   817  MRG817     -0.2203
@<TRIPOS>BOND
     1     2     1    2
     2     3     1    2
     3     1     4    1
     4     4    17    1
     5    17    18    1
     6    22    21    1
     7    18    21    1
     8    18    19    1
     9    21    16    1
    10    14    13   ar
    11    14     5   ar
    12    19    20    1
    13    13    12   ar
    14    16    20    1
    15     5    20    1
    16     5     6   ar
    17    12     6   ar
    18    12    10   ar
    19     6     7   ar
    20    11    10    2
    21    10     9   ar
    22     7     8   ar
    23     9     8   ar
    24     8    15    1
