@<TRIPOS>MOLECULE
/home/pku/3cl/gett_pdb/7AII/7AII_mol2/ligand/7AII_MRG.pdb
 22 24 0 0 0
SMALL
GASTEIGER

@<TRIPOS>ATOM
      1  P         -5.1540   19.1510  176.5660 P.3   817  MRG817      0.5411
      2  OP1       -6.0690   20.0080  175.7810 O.2   817  MRG817     -0.2272
      3  OP2       -3.9790   18.5440  175.9020 O.2   817  MRG817     -0.2272
      4  O5'       -4.6410   19.9860  177.8320 O.3   817  MRG817     -0.2722
      5  N9        -3.2500   19.0690  181.6700 N.ar  817  MRG817     -0.2713
      6  C4        -2.5500   18.5570  182.7400 C.ar  817  MRG817      0.1722
      7  N3        -2.6190   18.9980  184.0200 N.ar  817  MRG817     -0.1918
      8  C2        -1.8300   18.2990  184.8250 C.ar  817  MRG817      0.2606
      9  N1        -1.0380   17.2540  184.4090 N.ar  817  MRG817     -0.1709
     10  C6        -0.9550   16.7900  183.0980 C.ar  817  MRG817      0.3023
     11  O6        -0.2100   15.8390  182.8240 O.2   817  MRG817     -0.2633
     12  C5        -1.7930   17.5270  182.2280 C.ar  817  MRG817      0.1748
     13  N7        -2.0060   17.3920  180.8620 N.ar  817  MRG817     -0.2173
     14  C8        -2.8710   18.3270  180.5790 C.ar  817  MRG817      0.1816
     15  N2        -1.7760   18.6020  186.1300 N.pl3 817  MRG817     -0.0859
     16  C2'       -3.5030   21.5490  181.5370 C.3   817  MRG817      0.0894
     17  C5'       -5.4790   20.9850  178.4000 C.3   817  MRG817      0.1851
     18  C4'       -5.0980   21.2770  179.8430 C.3   817  MRG817      0.1776
     19  O4'       -5.1000   20.0530  180.6130 O.3   817  MRG817     -0.3326
     20  C1'       -4.1880   20.1880  181.6950 C.3   817  MRG817      0.2095
     21  C3'       -3.7040   21.8300  180.0530 C.3   817  MRG817      0.1859
     22  O3'       -3.6750   23.2240  179.7780 O.3   817  MRG817     -0.2203
@<TRIPOS>BOND
     1     2     1    2
     2     3     1    2
     3     1     4    1
     4     4    17    1
     5    17    18    1
     6    22    21    1
     7    18    21    1
     8    18    19    1
     9    21    16    1
    10    14    13   ar
    11    14     5   ar
    12    19    20    1
    13    13    12   ar
    14    16    20    1
    15     5    20    1
    16     5     6   ar
    17    12     6   ar
    18    12    10   ar
    19     6     7   ar
    20    11    10    2
    21    10     9   ar
    22     7     8   ar
    23     9     8   ar
    24     8    15    1
