RXI
  -OEChem-02242320043D

 48 51  0     1  0  0  0  0  0999 V2000
    8.3970   -1.5480   -0.6630 C   0  0  0  0  0  0  0  0  0  0  0  0
    6.9840   -1.0470   -0.9690 C   0  0  0  0  0  0  0  0  0  0  0  0
    8.1930   -0.3650   -1.6120 C   0  0  0  0  0  0  0  0  0  0  0  0
    4.9340   -0.2920    0.1100 C   0  0  0  0  0  0  0  0  0  0  0  0
    2.9040    0.5420    1.0170 C   0  0  0  0  0  0  0  0  0  0  0  0
    2.1520    0.5790    2.1870 C   0  0  0  0  0  0  0  0  0  0  0  0
    0.7860    0.7410    2.1250 C   0  0  0  0  0  0  0  0  0  0  0  0
    2.2800    0.6750   -0.2190 C   0  0  0  0  0  0  0  0  0  0  0  0
   -6.9310   -1.5210   -0.4720 C   0  0  0  0  0  0  0  0  0  0  0  0
   -5.4980   -1.8740   -0.1680 C   0  0  0  0  0  0  0  0  0  0  0  0
   -3.3560   -1.7840    0.1190 C   0  0  0  0  0  0  0  0  0  0  0  0
   -1.9480   -1.2410    0.1700 C   0  0  0  0  0  0  0  0  0  0  0  0
   -1.3080    1.0430    0.8140 C   0  0  0  0  0  0  0  0  0  0  0  0
    0.1550    0.8690    0.8850 C   0  0  0  0  0  0  0  0  0  0  0  0
    0.9150    0.8440   -0.2880 C   0  0  0  0  0  0  0  0  0  0  0  0
   -2.9770    0.7710   -0.9640 C   0  0  2  0  0  0  0  0  0  0  0  0
   -2.8620    2.2730   -0.9910 C   0  0  0  0  0  0  0  0  0  0  0  0
   -4.4100    0.3740   -0.5910 C   0  0  0  0  0  0  0  0  0  0  0  0
   -5.0470   -3.0450    0.2020 N   0  0  0  0  0  0  0  0  0  0  0  0
   -3.7710   -2.9860    0.3730 N   0  0  0  0  0  0  0  0  0  0  0  0
   -2.0470    0.2250    0.0380 N   0  0  0  0  0  0  0  0  0  0  0  0
    4.2870    0.3780    1.0840 N   0  0  0  0  0  0  0  0  0  0  0  0
    6.2810   -0.3190    0.0910 N   0  0  0  0  0  0  0  0  0  0  0  0
   -4.4380   -1.0430   -0.2320 N   0  0  0  0  0  0  0  0  0  0  0  0
    4.3020   -0.8720   -0.7520 O   0  0  0  0  0  0  0  0  0  0  0  0
   -1.8480    1.9230    1.4560 O   0  0  0  0  0  0  0  0  0  0  0  0
   -1.9230    2.8170   -0.4600 O   0  0  0  0  0  0  0  0  0  0  0  0
   -3.8020    3.0070   -1.6070 O   0  0  0  0  0  0  0  0  0  0  0  0
    8.8040   -1.3360    0.3260 H   0  0  0  0  0  0  0  0  0  0  0  0
    8.7000   -2.4990   -1.1020 H   0  0  0  0  0  0  0  0  0  0  0  0
    6.3570   -1.6680   -1.6080 H   0  0  0  0  0  0  0  0  0  0  0  0
    8.4660    0.6250   -1.2470 H   0  0  0  0  0  0  0  0  0  0  0  0
    8.3620   -0.5380   -2.6750 H   0  0  0  0  0  0  0  0  0  0  0  0
    2.6400    0.4800    3.1460 H   0  0  0  0  0  0  0  0  0  0  0  0
    0.2030    0.7680    3.0340 H   0  0  0  0  0  0  0  0  0  0  0  0
    2.8660    0.6460   -1.1250 H   0  0  0  0  0  0  0  0  0  0  0  0
   -7.1320   -1.6970   -1.5290 H   0  0  0  0  0  0  0  0  0  0  0  0
   -7.5930   -2.1420    0.1310 H   0  0  0  0  0  0  0  0  0  0  0  0
   -7.1040   -0.4710   -0.2390 H   0  0  0  0  0  0  0  0  0  0  0  0
   -1.4840   -1.4980    1.1220 H   0  0  0  0  0  0  0  0  0  0  0  0
   -1.3620   -1.6490   -0.6540 H   0  0  0  0  0  0  0  0  0  0  0  0
    0.4320    0.9520   -1.2480 H   0  0  0  0  0  0  0  0  0  0  0  0
   -2.7310    0.3690   -1.9460 H   0  0  0  0  0  0  0  0  0  0  0  0
   -4.7450    0.9720    0.2560 H   0  0  0  0  0  0  0  0  0  0  0  0
   -5.0690    0.5470   -1.4420 H   0  0  0  0  0  0  0  0  0  0  0  0
    4.7840    0.7460    1.8320 H   0  0  0  0  0  0  0  0  0  0  0  0
    6.7850    0.1430    0.7780 H   0  0  0  0  0  0  0  0  0  0  0  0
   -3.6850    3.9670   -1.5990 H   0  0  0  0  0  0  0  0  0  0  0  0
 19 20  1  0  0  0  0
 10 19  2  0  0  0  0
 11 20  2  0  0  0  0
  9 10  1  0  0  0  0
 10 24  1  0  0  0  0
 11 24  1  0  0  0  0
 11 12  1  0  0  0  0
 18 24  1  0  0  0  0
 12 21  1  0  0  0  0
 16 18  1  0  0  0  0
 13 26  2  0  0  0  0
 13 21  1  0  0  0  0
 16 21  1  0  0  0  0
 13 14  1  0  0  0  0
 16 17  1  0  0  0  0
 14 15  2  0  0  0  0
  8 15  1  0  0  0  0
  7 14  1  0  0  0  0
 17 27  2  0  0  0  0
 17 28  1  0  0  0  0
  5  8  2  0  0  0  0
  6  7  2  0  0  0  0
  4 25  2  0  0  0  0
  5  6  1  0  0  0  0
  5 22  1  0  0  0  0
  4 22  1  0  0  0  0
  4 23  1  0  0  0  0
  2 23  1  0  0  0  0
  1  2  1  0  0  0  0
  2  3  1  0  0  0  0
  1  3  1  0  0  0  0
  1 29  1  0  0  0  0
  1 30  1  0  0  0  0
  2 31  1  0  0  0  0
  3 32  1  0  0  0  0
  3 33  1  0  0  0  0
  6 34  1  0  0  0  0
  7 35  1  0  0  0  0
  8 36  1  0  0  0  0
  9 37  1  0  0  0  0
  9 38  1  0  0  0  0
  9 39  1  0  0  0  0
 12 40  1  0  0  0  0
 12 41  1  0  0  0  0
 15 42  1  0  0  0  0
 16 43  1  0  0  0  0
 18 44  1  0  0  0  0
 18 45  1  0  0  0  0
 22 46  1  0  0  0  0
 23 47  1  0  0  0  0
 28 48  1  0  0  0  0
M  END
> <OPENEYE_ISO_SMILES>
Cc1nnc2n1C[C@H](N(C2)C(=O)c3ccc(cc3)NC(=O)NC4CC4)C(=O)O

> <OPENEYE_INCHI>
InChI=1S/C18H20N6O4/c1-10-21-22-15-9-24(14(17(26)27)8-23(10)15)16(25)11-2-4-12(5-3-11)19-18(28)20-13-6-7-13/h2-5,13-14H,6-9H2,1H3,(H,26,27)(H2,19,20,28)/t14-/m0/s1

> <OPENEYE_INCHIKEY>
NVNVGIHHTGVADY-AWEZNQCLSA-N

> <FORMULA>
C18H20N6O4

$$$$
