UQW
  -OEChem-02242320043D

 42 43  0     1  0  0  0  0  0999 V2000
    5.2520   -0.6230   -0.1610 C   0  0  0  0  0  0  0  0  0  0  0  0
    4.1200    0.1480    0.1590 C   0  0  0  0  0  0  0  0  0  0  0  0
    4.0980    1.5110   -0.1410 C   0  0  0  0  0  0  0  0  0  0  0  0
    6.3400   -0.0140   -0.7760 C   0  0  0  0  0  0  0  0  0  0  0  0
   -7.4760   -0.8290   -1.0000 C   0  0  0  0  0  0  0  0  0  0  0  0
   -6.2420   -0.4870   -1.3640 C   0  0  0  0  0  0  0  0  0  0  0  0
   -5.2010   -0.2990   -0.3450 C   0  0  0  0  0  0  0  0  0  0  0  0
   -3.9510    0.0470   -0.7130 O   0  0  0  0  0  0  0  0  0  0  0  0
   -2.9740    0.2160    0.3470 C   0  0  2  0  0  0  0  0  0  0  0  0
   -2.9850    1.6690    0.8250 C   0  0  0  0  0  0  0  0  0  0  0  0
   -4.3380    1.9840    1.4670 C   0  0  0  0  0  0  0  0  0  0  0  0
   -1.6030   -0.1310   -0.1730 C   0  0  0  0  0  0  0  0  0  0  0  0
   -0.5470   -0.1450    0.6650 N   0  0  0  0  0  0  0  0  0  0  0  0
    0.7860   -0.4820    0.1590 C   0  0  0  0  0  0  0  0  0  0  0  0
    1.7960   -0.4250    1.3060 C   0  0  0  0  0  0  0  0  0  0  0  0
    3.1670   -0.7720    0.7860 C   0  0  0  0  0  0  0  0  0  0  0  0
    3.7470   -1.9820    0.8080 C   0  0  0  0  0  0  0  0  0  0  0  0
    4.9910   -1.9140    0.2410 N   0  0  0  0  0  0  0  0  0  0  0  0
    5.1790    2.0900   -0.7460 C   0  0  0  0  0  0  0  0  0  0  0  0
    6.2980    1.3330   -1.0640 C   0  0  0  0  0  0  0  0  0  0  0  0
   -1.4490   -0.3980   -1.3470 O   0  0  0  0  0  0  0  0  0  0  0  0
   -5.4660   -0.4550    0.8310 O   0  0  0  0  0  0  0  0  0  0  0  0
    3.2300    2.1060    0.1020 H   0  0  0  0  0  0  0  0  0  0  0  0
    7.2160   -0.5940   -1.0270 H   0  0  0  0  0  0  0  0  0  0  0  0
   -8.2410   -0.9670   -1.7500 H   0  0  0  0  0  0  0  0  0  0  0  0
   -7.7110   -0.9680    0.0440 H   0  0  0  0  0  0  0  0  0  0  0  0
   -6.0060   -0.3480   -2.4090 H   0  0  0  0  0  0  0  0  0  0  0  0
   -3.2230   -0.4420    1.1790 H   0  0  0  0  0  0  0  0  0  0  0  0
   -2.1920    1.8170    1.5580 H   0  0  0  0  0  0  0  0  0  0  0  0
   -2.8230    2.3320   -0.0250 H   0  0  0  0  0  0  0  0  0  0  0  0
   -4.3460    3.0200    1.8070 H   0  0  0  0  0  0  0  0  0  0  0  0
   -5.1310    1.8360    0.7340 H   0  0  0  0  0  0  0  0  0  0  0  0
   -4.5000    1.3210    2.3170 H   0  0  0  0  0  0  0  0  0  0  0  0
   -0.6700    0.0680    1.6030 H   0  0  0  0  0  0  0  0  0  0  0  0
    0.7710   -1.4870   -0.2630 H   0  0  0  0  0  0  0  0  0  0  0  0
    1.0720    0.2320   -0.6140 H   0  0  0  0  0  0  0  0  0  0  0  0
    1.8110    0.5800    1.7280 H   0  0  0  0  0  0  0  0  0  0  0  0
    1.5100   -1.1390    2.0790 H   0  0  0  0  0  0  0  0  0  0  0  0
    3.2970   -2.8780    1.2090 H   0  0  0  0  0  0  0  0  0  0  0  0
    5.6000   -2.6620    0.1430 H   0  0  0  0  0  0  0  0  0  0  0  0
    5.1610    3.1440   -0.9790 H   0  0  0  0  0  0  0  0  0  0  0  0
    7.1440    1.8050   -1.5410 H   0  0  0  0  0  0  0  0  0  0  0  0
  1 18  1  0  0  0  0
 17 18  1  0  0  0  0
  1  4  2  0  0  0  0
  4 20  1  0  0  0  0
  1  2  1  0  0  0  0
 16 17  2  0  0  0  0
 19 20  2  0  0  0  0
  2 16  1  0  0  0  0
  2  3  2  0  0  0  0
 15 16  1  0  0  0  0
  3 19  1  0  0  0  0
 14 15  1  0  0  0  0
 13 14  1  0  0  0  0
 12 21  2  0  0  0  0
 12 13  1  0  0  0  0
  9 12  1  0  0  0  0
 10 11  1  0  0  0  0
  9 10  1  0  0  0  0
  8  9  1  0  0  0  0
  7  8  1  0  0  0  0
  7 22  2  0  0  0  0
  6  7  1  0  0  0  0
  5  6  2  0  0  0  0
  3 23  1  0  0  0  0
  4 24  1  0  0  0  0
  5 25  1  0  0  0  0
  5 26  1  0  0  0  0
  6 27  1  0  0  0  0
  9 28  1  0  0  0  0
 10 29  1  0  0  0  0
 10 30  1  0  0  0  0
 11 31  1  0  0  0  0
 11 32  1  0  0  0  0
 11 33  1  0  0  0  0
 13 34  1  0  0  0  0
 14 35  1  0  0  0  0
 14 36  1  0  0  0  0
 15 37  1  0  0  0  0
 15 38  1  0  0  0  0
 17 39  1  0  0  0  0
 18 40  1  0  0  0  0
 19 41  1  0  0  0  0
 20 42  1  0  0  0  0
M  END
> <OPENEYE_ISO_SMILES>
CC[C@H](C(=O)NCCc1c[nH]c2c1cccc2)OC(=O)C=C

> <OPENEYE_INCHI>
InChI=1S/C17H20N2O3/c1-3-15(22-16(20)4-2)17(21)18-10-9-12-11-19-14-8-6-5-7-13(12)14/h4-8,11,15,19H,2-3,9-10H2,1H3,(H,18,21)/t15-/m1/s1

> <OPENEYE_INCHIKEY>
UWYXREXKBLOKIU-OAHLLOKOSA-N

> <FORMULA>
C17H20N2O3

$$$$
