@<TRIPOS>MOLECULE
/home/pku/3cl/gett_pdb/7RVW/7RVW_mol2/ligand/7RVW_7YB.pdb
 38 41 0 0 0
SMALL
GASTEIGER

@<TRIPOS>ATOM
      1  C1        -6.2630  -21.3750  -17.7850 C.ar  401  7YB401      0.0213
      2  C10      -10.8370  -18.2930  -18.7470 C.3   401  7YB401      0.0312
      3  C11       -9.7350  -17.5740  -18.0690 C.3   401  7YB401      0.1517
      4  C12      -10.2020  -16.2420  -17.5750 C.2   401  7YB401      0.2596
      5  C13       -7.5120  -13.1490  -18.3080 C.3   401  7YB401      0.0022
      6  C14       -9.8650  -13.9040  -17.5930 C.3   401  7YB401      0.1728
      7  C15      -11.2730  -13.4240  -17.5050 C.2   401  7YB401      0.2612
      8  C16       -6.7850  -11.9480  -18.8730 C.3   401  7YB401      0.0001
      9  C17      -13.1300  -12.4040  -16.3830 C.3   401  7YB401      0.1287
     10  C18       -5.3050  -12.2530  -18.9850 C.3   401  7YB401      0.0000
     11  C19      -14.0470  -13.2610  -15.5260 C.3   401  7YB401      0.0335
     12  C2        -5.4700  -22.4900  -18.0680 C.ar  401  7YB401     -0.0007
     13  C20      -14.0720  -14.7140  -15.9110 C.3   401  7YB401      0.0818
     14  C21      -14.7730  -14.9330  -17.2380 C.3   401  7YB401      0.0326
     15  C22      -15.4730  -16.2700  -17.1030 C.3   401  7YB401      0.1156
     16  C23       -4.7270  -12.4780  -17.6230 C.3   401  7YB401      0.0000
     17  C24      -14.8710  -15.6330  -14.9890 C.2   401  7YB401      0.2410
     18  C25       -5.4370  -13.6320  -17.0130 C.3   401  7YB401      0.0000
     19  C26       -6.9270  -13.3580  -16.9480 C.3   401  7YB401      0.0001
     20  C3        -5.8300  -23.4020  -19.0840 C.ar  401  7YB401     -0.0002
     21  C30       -9.7680  -17.5670  -19.5650 C.3   401  7YB401      0.0312
     22  C34       -9.0080  -12.8910  -18.3360 C.3   401  7YB401      0.0311
     23  C4        -6.9970  -23.1890  -19.8450 C.ar  401  7YB401     -0.0000
     24  C5        -7.7980  -22.0870  -19.5630 C.ar  401  7YB401     -0.0002
     25  C6        -7.4270  -21.2120  -18.5450 C.ar  401  7YB401     -0.0007
     26  C7        -5.8560  -20.3800  -16.7070 C.3   401  7YB401      0.2368
     27  C8       -13.1530  -10.9290  -16.0480 C.3   401  7YB401      0.2036
     28  C9        -7.3130  -18.2300  -17.2080 C.2   401  7YB401      0.4218
     29  N10       -8.6060  -18.3890  -17.5830 N.am  401  7YB401     -0.1633
     30  N13       -9.8020  -15.1800  -18.2320 N.am  401  7YB401     -0.1964
     31  N16      -11.7800  -12.8990  -16.4130 N.am  401  7YB401     -0.2030
     32  N23      -15.6440  -16.4250  -15.6900 N.am  401  7YB401     -0.2054
     33  O26      -14.7830  -15.6160  -13.8170 O.2   401  7YB401     -0.2734
     34  O29       -6.6320  -17.2790  -17.4890 O.2   401  7YB401     -0.2245
     35  O33      -10.9330  -16.2120  -16.6620 O.2   401  7YB401     -0.2715
     36  O38      -11.9100  -13.5500  -18.4640 O.2   401  7YB401     -0.2715
     37  O8        -6.7240  -19.2810  -16.3800 O.3   401  7YB401     -0.4285
     38  O9       -14.4060  -10.2980  -16.0340 O.3   401  7YB401     -0.2185
@<TRIPOS>BOND
     1    23    24   ar
     2    23    20   ar
     3    21     2    1
     4    21     3    1
     5    24    25   ar
     6    20    12   ar
     7    10     8    1
     8    10    16    1
     9     8     5    1
    10     2     3    1
    11    25     1   ar
    12    36     7    2
    13    22     5    1
    14    22     6    1
    15     5    19    1
    16    30     6    1
    17    30     4   am
    18     3    29    1
    19     3     4    1
    20    12     1   ar
    21     1    26    1
    22    16    18    1
    23     6     7    1
    24    29    28   am
    25     4    35    2
    26     7    31   am
    27    34    28    2
    28    14    15    1
    29    14    13    1
    30    28    37    1
    31    15    32    1
    32    18    19    1
    33    26    37    1
    34    31     9    1
    35     9    27    1
    36     9    11    1
    37    27    38    1
    38    13    11    1
    39    13    17    1
    40    32    17   am
    41    17    33    2
