QM6
  -OEChem-02242320033D

 48 51  0     0  0  0  0  0  0999 V2000
   -1.7910    2.5790   -1.1970 C   0  0  0  0  0  0  0  0  0  0  0  0
   -0.8280    1.6410   -0.8170 C   0  0  0  0  0  0  0  0  0  0  0  0
    0.5970    2.0210   -0.7720 C   0  0  0  0  0  0  0  0  0  0  0  0
    2.9400    1.4920   -0.3620 C   0  0  0  0  0  0  0  0  0  0  0  0
    3.7620    0.3070    0.0750 C   0  0  0  0  0  0  0  0  0  0  0  0
    4.3640   -0.7110   -0.7860 C   0  0  0  0  0  0  0  0  0  0  0  0
    4.3910   -0.9270   -2.1660 C   0  0  0  0  0  0  0  0  0  0  0  0
   -3.5060    0.9310   -0.8880 C   0  0  0  0  0  0  0  0  0  0  0  0
   -3.1210    2.2240   -1.2310 C   0  0  0  0  0  0  0  0  0  0  0  0
    3.7140    0.7200    2.5490 C   0  0  0  0  0  0  0  0  0  0  0  0
    4.1000   -0.0290    1.3470 C   0  0  0  0  0  0  0  0  0  0  0  0
    5.0270   -1.6000    0.0810 C   0  0  0  0  0  0  0  0  0  0  0  0
    5.7000   -2.6920   -0.4550 C   0  0  0  0  0  0  0  0  0  0  0  0
    5.7110   -2.8900   -1.8190 C   0  0  0  0  0  0  0  0  0  0  0  0
    5.0630   -2.0050   -2.6690 C   0  0  0  0  0  0  0  0  0  0  0  0
   -5.3380   -0.3180   -0.0380 C   0  0  0  0  0  0  0  0  0  0  0  0
   -7.1390   -1.7130    0.8250 C   0  0  0  0  0  0  0  0  0  0  0  0
   -8.5410   -1.4620    1.3860 C   0  0  0  0  0  0  0  0  0  0  0  0
   -8.3100   -2.5900    0.3770 C   0  0  0  0  0  0  0  0  0  0  0  0
   -2.5480   -0.0090   -0.5210 C   0  0  0  0  0  0  0  0  0  0  0  0
   -1.2180    0.3420   -0.4790 C   0  0  0  0  0  0  0  0  0  0  0  0
    1.5250    1.1150   -0.4060 N   0  0  0  0  0  0  0  0  0  0  0  0
   -4.8530    0.5740   -0.9240 N   0  0  0  0  0  0  0  0  0  0  0  0
   -6.6120   -0.7440   -0.1390 N   0  0  0  0  0  0  0  0  0  0  0  0
    3.0400    1.7260    2.4480 O   0  0  0  0  0  0  0  0  0  0  0  0
    4.1080    0.2910    3.7660 O   0  0  0  0  0  0  0  0  0  0  0  0
    4.8430   -1.1560    1.3390 O   0  0  0  0  0  0  0  0  0  0  0  0
    0.9350    3.1510   -1.0660 O   0  0  0  0  0  0  0  0  0  0  0  0
   -4.6250   -0.7380    0.8540 O   0  0  0  0  0  0  0  0  0  0  0  0
   -1.4940    3.5840   -1.4580 H   0  0  0  0  0  0  0  0  0  0  0  0
    3.0760    2.3090    0.3460 H   0  0  0  0  0  0  0  0  0  0  0  0
    3.2620    1.8120   -1.3530 H   0  0  0  0  0  0  0  0  0  0  0  0
    3.8820   -0.2460   -2.8320 H   0  0  0  0  0  0  0  0  0  0  0  0
   -3.8660    2.9480   -1.5240 H   0  0  0  0  0  0  0  0  0  0  0  0
    6.2140   -3.3830    0.1970 H   0  0  0  0  0  0  0  0  0  0  0  0
    6.2360   -3.7390   -2.2310 H   0  0  0  0  0  0  0  0  0  0  0  0
    5.0840   -2.1740   -3.7360 H   0  0  0  0  0  0  0  0  0  0  0  0
   -6.4030   -2.1600    1.4930 H   0  0  0  0  0  0  0  0  0  0  0  0
   -8.7260   -1.7440    2.4220 H   0  0  0  0  0  0  0  0  0  0  0  0
   -9.0710   -0.5760    1.0370 H   0  0  0  0  0  0  0  0  0  0  0  0
   -8.6890   -2.4450   -0.6350 H   0  0  0  0  0  0  0  0  0  0  0  0
   -8.3440   -3.6130    0.7510 H   0  0  0  0  0  0  0  0  0  0  0  0
   -2.8500   -1.0110   -0.2550 H   0  0  0  0  0  0  0  0  0  0  0  0
   -0.4760   -0.3860   -0.1850 H   0  0  0  0  0  0  0  0  0  0  0  0
    1.2560    0.2130   -0.1710 H   0  0  0  0  0  0  0  0  0  0  0  0
   -5.4420    0.9670   -1.5870 H   0  0  0  0  0  0  0  0  0  0  0  0
   -7.1810   -0.4090   -0.8490 H   0  0  0  0  0  0  0  0  0  0  0  0
    3.8300    0.8170    4.5280 H   0  0  0  0  0  0  0  0  0  0  0  0
 10 25  2  0  0  0  0
 10 26  1  0  0  0  0
 10 11  1  0  0  0  0
 11 27  1  0  0  0  0
 12 27  1  0  0  0  0
 12 13  2  0  0  0  0
 13 14  1  0  0  0  0
 14 15  2  0  0  0  0
  7 15  1  0  0  0  0
  6  7  2  0  0  0  0
  5  6  1  0  0  0  0
  4  5  1  0  0  0  0
  4 22  1  0  0  0  0
  3 22  1  0  0  0  0
  3 28  2  0  0  0  0
  2  3  1  0  0  0  0
  1  2  2  0  0  0  0
  1  9  1  0  0  0  0
  8  9  2  0  0  0  0
 16 23  1  0  0  0  0
 16 29  2  0  0  0  0
 16 24  1  0  0  0  0
 17 24  1  0  0  0  0
 17 18  1  0  0  0  0
 18 19  1  0  0  0  0
  8 23  1  0  0  0  0
  8 20  1  0  0  0  0
 20 21  2  0  0  0  0
  5 11  2  0  0  0  0
  6 12  1  0  0  0  0
  2 21  1  0  0  0  0
 17 19  1  0  0  0  0
  1 30  1  0  0  0  0
  4 31  1  0  0  0  0
  4 32  1  0  0  0  0
  7 33  1  0  0  0  0
  9 34  1  0  0  0  0
 13 35  1  0  0  0  0
 14 36  1  0  0  0  0
 15 37  1  0  0  0  0
 17 38  1  0  0  0  0
 18 39  1  0  0  0  0
 18 40  1  0  0  0  0
 19 41  1  0  0  0  0
 19 42  1  0  0  0  0
 20 43  1  0  0  0  0
 21 44  1  0  0  0  0
 22 45  1  0  0  0  0
 23 46  1  0  0  0  0
 24 47  1  0  0  0  0
 26 48  1  0  0  0  0
M  END
> <OPENEYE_ISO_SMILES>
c1ccc2c(c1)c(c(o2)C(=O)O)CNC(=O)c3ccc(cc3)NC(=O)NC4CC4

> <OPENEYE_INCHI>
InChI=1S/C21H19N3O5/c25-19(12-5-7-13(8-6-12)23-21(28)24-14-9-10-14)22-11-16-15-3-1-2-4-17(15)29-18(16)20(26)27/h1-8,14H,9-11H2,(H,22,25)(H,26,27)(H2,23,24,28)

> <OPENEYE_INCHIKEY>
HQJPRWMHEFULOK-UHFFFAOYSA-N

> <FORMULA>
C21H19N3O5

$$$$
