W1J
  -OEChem-02242320043D

 27 28  0     0  0  0  0  0  0999 V2000
    2.3000   -1.3470   -0.1650 N   0  0  0  0  0  0  0  0  0  0  0  0
   -0.7150    0.4200   -0.2030 N   0  0  0  0  0  0  0  0  0  0  0  0
   -1.7160   -0.4510    0.0330 C   0  0  0  0  0  0  0  0  0  0  0  0
   -3.1040    0.0220    0.0730 C   0  0  0  0  0  0  0  0  0  0  0  0
   -4.2070   -0.7490    0.3010 C   0  0  0  0  0  0  0  0  0  0  0  0
   -5.3170    0.1090    0.2520 C   0  0  0  0  0  0  0  0  0  0  0  0
   -4.8470    1.3510    0.0000 C   0  0  0  0  0  0  0  0  0  0  0  0
   -1.4690   -1.6290    0.2120 O   0  0  0  0  0  0  0  0  0  0  0  0
   -3.5130    1.2950   -0.1020 O   0  0  0  0  0  0  0  0  0  0  0  0
    1.6760    0.7080   -0.4610 N   0  0  0  0  0  0  0  0  0  0  0  0
    0.6080   -0.0310   -0.2420 C   0  0  0  0  0  0  0  0  0  0  0  0
    1.0190   -1.2870   -0.0630 N   0  0  0  0  0  0  0  0  0  0  0  0
    2.7710   -0.1710   -0.4060 N   0  0  0  0  0  0  0  0  0  0  0  0
    4.1810    0.1820   -0.5890 C   0  0  0  0  0  0  0  0  0  0  0  0
    4.7950    0.5450    0.7650 C   0  0  0  0  0  0  0  0  0  0  0  0
    6.2670    0.9140    0.5740 C   0  0  0  0  0  0  0  0  0  0  0  0
   -0.9120    1.3590   -0.3460 H   0  0  0  0  0  0  0  0  0  0  0  0
   -4.2240   -1.8140    0.4830 H   0  0  0  0  0  0  0  0  0  0  0  0
   -6.3510   -0.1700    0.3870 H   0  0  0  0  0  0  0  0  0  0  0  0
   -5.4490    2.2430   -0.0990 H   0  0  0  0  0  0  0  0  0  0  0  0
    4.7160   -0.6680   -1.0140 H   0  0  0  0  0  0  0  0  0  0  0  0
    4.2580    1.0340   -1.2630 H   0  0  0  0  0  0  0  0  0  0  0  0
    4.2600    1.3950    1.1900 H   0  0  0  0  0  0  0  0  0  0  0  0
    4.7180   -0.3070    1.4390 H   0  0  0  0  0  0  0  0  0  0  0  0
    6.8020    0.0650    0.1490 H   0  0  0  0  0  0  0  0  0  0  0  0
    6.3440    1.7660   -0.1000 H   0  0  0  0  0  0  0  0  0  0  0  0
    6.7050    1.1730    1.5380 H   0  0  0  0  0  0  0  0  0  0  0  0
  6  7  2  0  0  0  0
  5  6  1  0  0  0  0
  7  9  1  0  0  0  0
  4  5  2  0  0  0  0
  4  9  1  0  0  0  0
  3  4  1  0  0  0  0
  3  8  2  0  0  0  0
  2  3  1  0  0  0  0
  2 11  1  0  0  0  0
 10 11  2  0  0  0  0
 11 12  1  0  0  0  0
 10 13  1  0  0  0  0
  1 12  2  0  0  0  0
  1 13  1  0  0  0  0
 13 14  1  0  0  0  0
 15 16  1  0  0  0  0
 14 15  1  0  0  0  0
  2 17  1  0  0  0  0
  5 18  1  0  0  0  0
  6 19  1  0  0  0  0
  7 20  1  0  0  0  0
 14 21  1  0  0  0  0
 14 22  1  0  0  0  0
 15 23  1  0  0  0  0
 15 24  1  0  0  0  0
 16 25  1  0  0  0  0
 16 26  1  0  0  0  0
 16 27  1  0  0  0  0
M  END
> <OPENEYE_ISO_SMILES>
CCCn1nc(nn1)NC(=O)c2ccco2

> <OPENEYE_INCHI>
InChI=1S/C9H11N5O2/c1-2-5-14-12-9(11-13-14)10-8(15)7-4-3-6-16-7/h3-4,6H,2,5H2,1H3,(H,10,12,15)

> <OPENEYE_INCHIKEY>
DFAKOYAKHWMEQD-UHFFFAOYSA-N

> <FORMULA>
C9H11N5O2

$$$$
