T9J
  -OEChem-02242320043D

 35 35  0     1  0  0  0  0  0999 V2000
    2.3950   -1.6270    0.9200 N   0  0  0  0  0  0  0  0  0  0  0  0
    1.7600    0.0090   -0.7830 C   0  0  0  0  0  0  0  0  0  0  0  0
    2.9310    0.9030   -0.4700 C   0  0  0  0  0  0  0  0  0  0  0  0
    4.2210    0.4180   -0.5860 C   0  0  0  0  0  0  0  0  0  0  0  0
    5.2960    1.2350   -0.3000 C   0  0  0  0  0  0  0  0  0  0  0  0
    5.0820    2.5450    0.1060 C   0  0  0  0  0  0  0  0  0  0  0  0
    2.7150    2.2100   -0.0720 C   0  0  0  0  0  0  0  0  0  0  0  0
   -3.5070   -0.8030   -0.0560 C   0  0  0  0  0  0  0  0  0  0  0  0
    3.9160   -3.5420    0.5510 C   0  0  0  0  0  0  0  0  0  0  0  0
    0.0790   -1.5250    0.2030 C   0  0  0  0  0  0  0  0  0  0  0  0
   -2.3340   -1.6920   -0.0920 C   0  0  0  0  0  0  0  0  0  0  0  0
   -4.4420   -0.0940   -0.0270 C   0  0  0  0  0  0  0  0  0  0  0  0
    2.8150   -2.6150    0.1050 C   0  0  0  0  0  0  0  0  0  0  0  0
    1.3250   -0.7260    0.4860 C   0  0  1  0  0  0  0  0  0  0  0  0
    3.7880    3.0300    0.2220 C   0  0  0  0  0  0  0  0  0  0  0  0
   -1.1230   -0.9150    0.1840 N   0  0  0  0  0  0  0  0  0  0  0  0
    2.3070   -2.7580   -0.9870 O   0  0  0  0  0  0  0  0  0  0  0  0
    6.1390    3.3510    0.3890 O   0  0  0  0  0  0  0  0  0  0  0  0
    0.1580   -2.7170   -0.0090 O   0  0  0  0  0  0  0  0  0  0  0  0
   -5.9550    1.0540    0.0200 Br  0  0  0  0  0  0  0  0  0  0  0  0
    2.7990   -1.5150    1.7950 H   0  0  0  0  0  0  0  0  0  0  0  0
    0.9320    0.6120   -1.1560 H   0  0  0  0  0  0  0  0  0  0  0  0
    2.0500   -0.7180   -1.5420 H   0  0  0  0  0  0  0  0  0  0  0  0
    4.3870   -0.6020   -0.9010 H   0  0  0  0  0  0  0  0  0  0  0  0
    6.3030    0.8550   -0.3900 H   0  0  0  0  0  0  0  0  0  0  0  0
    1.7070    2.5880    0.0140 H   0  0  0  0  0  0  0  0  0  0  0  0
    4.1180   -4.2710   -0.2340 H   0  0  0  0  0  0  0  0  0  0  0  0
    4.8190   -2.9650    0.7520 H   0  0  0  0  0  0  0  0  0  0  0  0
    3.6080   -4.0620    1.4590 H   0  0  0  0  0  0  0  0  0  0  0  0
   -2.4450   -2.4720    0.6620 H   0  0  0  0  0  0  0  0  0  0  0  0
   -2.2550   -2.1500   -1.0780 H   0  0  0  0  0  0  0  0  0  0  0  0
    1.1190   -0.0000    1.2740 H   0  0  0  0  0  0  0  0  0  0  0  0
    3.6180    4.0490    0.5370 H   0  0  0  0  0  0  0  0  0  0  0  0
   -1.1860    0.0380    0.3530 H   0  0  0  0  0  0  0  0  0  0  0  0
    6.4690    3.8490   -0.3720 H   0  0  0  0  0  0  0  0  0  0  0  0
  9 13  1  0  0  0  0
 13 17  2  0  0  0  0
  1 13  1  0  0  0  0
  1 14  1  0  0  0  0
  2 14  1  0  0  0  0
  2  3  1  0  0  0  0
  3  4  2  0  0  0  0
  4  5  1  0  0  0  0
  5  6  2  0  0  0  0
  6 15  1  0  0  0  0
  7 15  2  0  0  0  0
  6 18  1  0  0  0  0
 10 14  1  0  0  0  0
 10 19  2  0  0  0  0
 10 16  1  0  0  0  0
 11 16  1  0  0  0  0
  8 11  1  0  0  0  0
  8 12  3  0  0  0  0
  3  7  1  0  0  0  0
  1 21  1  0  0  0  0
  2 22  1  0  0  0  0
  2 23  1  0  0  0  0
  4 24  1  0  0  0  0
  5 25  1  0  0  0  0
  7 26  1  0  0  0  0
  9 27  1  0  0  0  0
  9 28  1  0  0  0  0
  9 29  1  0  0  0  0
 11 30  1  0  0  0  0
 11 31  1  0  0  0  0
 14 32  1  0  0  0  0
 15 33  1  0  0  0  0
 16 34  1  0  0  0  0
 18 35  1  0  0  0  0
 12 20  1  0  0  0  0
M  END
> <OPENEYE_ISO_SMILES>
CC(=O)N[C@@H](Cc1ccc(cc1)O)C(=O)NCC#CBr

> <OPENEYE_INCHI>
InChI=1S/C14H15BrN2O3/c1-10(18)17-13(14(20)16-8-2-7-15)9-11-3-5-12(19)6-4-11/h3-6,13,19H,8-9H2,1H3,(H,16,20)(H,17,18)/t13-/m0/s1

> <OPENEYE_INCHIKEY>
NITJFOXRSHCWBE-ZDUSSCGKSA-N

> <FORMULA>
C14H15BrN2O3

$$$$
