NVD
  -OEChem-02242320033D

 31 32  0     0  0  0  0  0  0999 V2000
    4.4060   -0.0010   -0.2180 N   0  0  0  0  0  0  0  0  0  0  0  0
   -3.2520    0.0040   -0.3170 N   0  0  0  0  0  0  0  0  0  0  0  0
    2.3460    1.2060    0.1360 C   0  0  0  0  0  0  0  0  0  0  0  0
    0.9860    1.2060    0.3740 C   0  0  0  0  0  0  0  0  0  0  0  0
    0.3050    0.0090    0.5040 C   0  0  0  0  0  0  0  0  0  0  0  0
   -1.1800    0.0130    0.7630 C   0  0  0  0  0  0  0  0  0  0  0  0
   -4.2160   -0.0040   -1.2690 C   0  0  0  0  0  0  0  0  0  0  0  0
    0.9830   -1.1910    0.3970 C   0  0  0  0  0  0  0  0  0  0  0  0
    5.1280    1.2650   -0.3560 C   0  0  0  0  0  0  0  0  0  0  0  0
    2.3440   -1.1980    0.1590 C   0  0  0  0  0  0  0  0  0  0  0  0
    5.1270   -1.2720   -0.3260 C   0  0  0  0  0  0  0  0  0  0  0  0
    3.0300    0.0020    0.0230 C   0  0  0  0  0  0  0  0  0  0  0  0
   -3.9000    0.0110    0.8720 C   0  0  0  0  0  0  0  0  0  0  0  0
   -1.9000    0.0010   -0.5160 N   0  0  0  0  0  0  0  0  0  0  0  0
   -5.3680    0.0020   -0.6550 N   0  0  0  0  0  0  0  0  0  0  0  0
   -5.1800    0.0060    0.6170 N   0  0  0  0  0  0  0  0  0  0  0  0
    2.8770    2.1410    0.0350 H   0  0  0  0  0  0  0  0  0  0  0  0
    0.4530    2.1410    0.4580 H   0  0  0  0  0  0  0  0  0  0  0  0
   -1.4500   -0.8710    1.3410 H   0  0  0  0  0  0  0  0  0  0  0  0
   -1.4480    0.9090    1.3240 H   0  0  0  0  0  0  0  0  0  0  0  0
   -4.0600   -0.0140   -2.3380 H   0  0  0  0  0  0  0  0  0  0  0  0
    0.4490   -2.1240    0.4990 H   0  0  0  0  0  0  0  0  0  0  0  0
    5.1350    1.5680   -1.4030 H   0  0  0  0  0  0  0  0  0  0  0  0
    4.6340    2.0330    0.2410 H   0  0  0  0  0  0  0  0  0  0  0  0
    6.1540    1.1390   -0.0080 H   0  0  0  0  0  0  0  0  0  0  0  0
    2.8730   -2.1360    0.0760 H   0  0  0  0  0  0  0  0  0  0  0  0
    6.1840   -1.0750   -0.5080 H   0  0  0  0  0  0  0  0  0  0  0  0
    5.0170   -1.8320    0.6020 H   0  0  0  0  0  0  0  0  0  0  0  0
    4.7180   -1.8530   -1.1520 H   0  0  0  0  0  0  0  0  0  0  0  0
   -3.4430    0.0180    1.8510 H   0  0  0  0  0  0  0  0  0  0  0  0
   -1.6200   -0.7860   -1.0820 H   0  0  0  0  0  0  0  0  0  0  0  0
 13 16  2  0  0  0  0
 15 16  1  0  0  0  0
  2 13  1  0  0  0  0
  7 15  2  0  0  0  0
  2  7  1  0  0  0  0
  2 14  1  0  0  0  0
  6 14  1  0  0  0  0
  5  6  1  0  0  0  0
  5  8  2  0  0  0  0
  8 10  1  0  0  0  0
  4  5  1  0  0  0  0
 10 12  2  0  0  0  0
  3  4  2  0  0  0  0
  3 12  1  0  0  0  0
  1 12  1  0  0  0  0
  1  9  1  0  0  0  0
  1 11  1  0  0  0  0
  3 17  1  0  0  0  0
  4 18  1  0  0  0  0
  6 19  1  0  0  0  0
  6 20  1  0  0  0  0
  7 21  1  0  0  0  0
  8 22  1  0  0  0  0
  9 23  1  0  0  0  0
  9 24  1  0  0  0  0
  9 25  1  0  0  0  0
 10 26  1  0  0  0  0
 11 27  1  0  0  0  0
 11 28  1  0  0  0  0
 11 29  1  0  0  0  0
 13 30  1  0  0  0  0
 14 31  1  0  0  0  0
M  END
> <OPENEYE_ISO_SMILES>
CN(C)c1ccc(cc1)CNn2cnnc2

> <OPENEYE_INCHI>
InChI=1S/C11H15N5/c1-15(2)11-5-3-10(4-6-11)7-14-16-8-12-13-9-16/h3-6,8-9,14H,7H2,1-2H3

> <OPENEYE_INCHIKEY>
ZPORTAACPUBAHX-UHFFFAOYSA-N

> <FORMULA>
C11H15N5

$$$$
