HER
  -OEChem-02242320023D

 36 38  0     0  0  0  0  0  0999 V2000
    4.1340    0.4700    0.7810 C   0  0  0  0  0  0  0  0  0  0  0  0
    2.7820    0.7550    0.7400 C   0  0  0  0  0  0  0  0  0  0  0  0
    1.9210   -0.0560   -0.0050 C   0  0  0  0  0  0  0  0  0  0  0  0
    0.4780    0.2460   -0.0520 C   0  0  0  0  0  0  0  0  0  0  0  0
   -1.7340   -0.5590    0.1140 C   0  0  0  0  0  0  0  0  0  0  0  0
   -1.3020    1.8330   -0.3440 C   0  0  0  0  0  0  0  0  0  0  0  0
   -3.9770   -1.3980    0.2860 C   0  0  0  0  0  0  0  0  0  0  0  0
   -3.6320    0.9390   -0.1540 C   0  0  0  0  0  0  0  0  0  0  0  0
    2.4300   -1.1520   -0.7060 C   0  0  0  0  0  0  0  0  0  0  0  0
    0.0830    1.5270   -0.2960 C   0  0  0  0  0  0  0  0  0  0  0  0
   -2.6090   -1.6150    0.3180 C   0  0  0  0  0  0  0  0  0  0  0  0
   -4.4890   -0.1260    0.0500 C   0  0  0  0  0  0  0  0  0  0  0  0
   -6.2260   -2.1500    0.4420 C   0  0  0  0  0  0  0  0  0  0  0  0
    3.7830   -1.4320   -0.6610 C   0  0  0  0  0  0  0  0  0  0  0  0
    4.6380   -0.6230    0.0820 C   0  0  0  0  0  0  0  0  0  0  0  0
   -2.2480    0.7270   -0.1240 C   0  0  0  0  0  0  0  0  0  0  0  0
   -0.3990   -0.7540    0.1420 O   0  0  0  0  0  0  0  0  0  0  0  0
   -1.6930    2.9700   -0.5550 O   0  0  0  0  0  0  0  0  0  0  0  0
    1.0090    2.5050   -0.4910 O   0  0  0  0  0  0  0  0  0  0  0  0
   -4.1290    2.1810   -0.3850 O   0  0  0  0  0  0  0  0  0  0  0  0
   -4.8270   -2.4380    0.4870 O   0  0  0  0  0  0  0  0  0  0  0  0
    4.2800   -2.4990   -1.3430 O   0  0  0  0  0  0  0  0  0  0  0  0
    5.9690   -0.9010    0.1250 O   0  0  0  0  0  0  0  0  0  0  0  0
    4.9730    1.2610    1.5020 O   0  0  0  0  0  0  0  0  0  0  0  0
    2.3910    1.6020    1.2830 H   0  0  0  0  0  0  0  0  0  0  0  0
    1.7670   -1.7810   -1.2830 H   0  0  0  0  0  0  0  0  0  0  0  0
   -2.2240   -2.6070    0.5020 H   0  0  0  0  0  0  0  0  0  0  0  0
   -5.5570    0.0290    0.0290 H   0  0  0  0  0  0  0  0  0  0  0  0
   -6.4830   -1.7470   -0.5380 H   0  0  0  0  0  0  0  0  0  0  0  0
   -6.7920   -3.0650    0.6180 H   0  0  0  0  0  0  0  0  0  0  0  0
   -6.4720   -1.4180    1.2120 H   0  0  0  0  0  0  0  0  0  0  0  0
    0.6290    3.3780   -0.6570 H   0  0  0  0  0  0  0  0  0  0  0  0
   -4.2690    2.7040    0.4160 H   0  0  0  0  0  0  0  0  0  0  0  0
    4.5530   -2.2950   -2.2470 H   0  0  0  0  0  0  0  0  0  0  0  0
    6.2240   -1.4940    0.8450 H   0  0  0  0  0  0  0  0  0  0  0  0
    5.0870    0.9810    2.4200 H   0  0  0  0  0  0  0  0  0  0  0  0
 15 23  1  0  0  0  0
  1 24  1  0  0  0  0
  1 15  2  0  0  0  0
 14 15  1  0  0  0  0
  1  2  1  0  0  0  0
 14 22  1  0  0  0  0
  9 14  2  0  0  0  0
  2  3  2  0  0  0  0
 10 19  1  0  0  0  0
  3  9  1  0  0  0  0
  3  4  1  0  0  0  0
  4 10  2  0  0  0  0
  6 10  1  0  0  0  0
  4 17  1  0  0  0  0
  6 18  2  0  0  0  0
  6 16  1  0  0  0  0
  5 17  1  0  0  0  0
  5 16  2  0  0  0  0
  8 16  1  0  0  0  0
  5 11  1  0  0  0  0
  8 20  1  0  0  0  0
  8 12  2  0  0  0  0
  7 11  2  0  0  0  0
  7 12  1  0  0  0  0
  7 21  1  0  0  0  0
 13 21  1  0  0  0  0
  2 25  1  0  0  0  0
  9 26  1  0  0  0  0
 11 27  1  0  0  0  0
 12 28  1  0  0  0  0
 13 29  1  0  0  0  0
 13 30  1  0  0  0  0
 13 31  1  0  0  0  0
 19 32  1  0  0  0  0
 20 33  1  0  0  0  0
 22 34  1  0  0  0  0
 23 35  1  0  0  0  0
 24 36  1  0  0  0  0
M  END
> <OPENEYE_ISO_SMILES>
COc1cc(c2c(c1)oc(c(c2=O)O)c3cc(c(c(c3)O)O)O)O

> <OPENEYE_INCHI>
InChI=1S/C16H12O8/c1-23-7-4-8(17)12-11(5-7)24-16(15(22)14(12)21)6-2-9(18)13(20)10(19)3-6/h2-5,17-20,22H,1H3

> <OPENEYE_INCHIKEY>
BDZXSHDKBKYQKJ-UHFFFAOYSA-N

> <FORMULA>
C16H12O8

$$$$
