@<TRIPOS>MOLECULE
/home/pku/3cl/gett_pdb/5SOR/5SOR_mol2/ligand/5SOR_WWP.pdb
 31 33 0 0 0
SMALL
GASTEIGER

@<TRIPOS>ATOM
      1  C10      -44.9330  -30.4380    1.2080 C.ar  201  WWP201     -0.0295
      2  C13      -42.0940  -32.9160    0.7260 C.3   201  WWP201      0.4174
      3  C17      -44.5020  -32.9950    0.2000 C.ar  201  WWP201     -0.0501
      4  C20      -47.3450  -28.7420    2.8150 C.3   201  WWP201      0.2727
      5  C02      -47.6330  -28.8230    5.1100 C.2   201  WWP201      0.3349
      6  C03      -46.2670  -29.0760    5.2590 C.ar  201  WWP201      0.1951
      7  C05      -44.2390  -29.4590    5.8670 C.ar  201  WWP201      0.1192
      8  C07      -45.4980  -29.1460    4.1600 C.ar  201  WWP201      0.1602
      9  C09      -45.1990  -29.0360    1.7350 C.3   201  WWP201      0.0427
     10  C11      -43.6590  -30.9860    1.2270 C.ar  201  WWP201     -0.0454
     11  C12      -43.4680  -32.2590    0.7220 C.ar  201  WWP201      0.0551
     12  C18      -45.7650  -32.4440    0.1770 C.ar  201  WWP201     -0.0609
     13  C19      -45.9730  -31.1720    0.6760 C.ar  201  WWP201     -0.0570
     14  F14      -41.1820  -32.1100    1.3120 F     201  WWP201     -0.1659
     15  F15      -41.6910  -33.2070   -0.5440 F     201  WWP201     -0.1659
     16  F16      -42.1460  -34.0760    1.4240 F     201  WWP201     -0.1659
     17  N01      -48.4940  -28.7020    6.2500 N.pl3 201  WWP201     -0.2451
     18  N04      -45.4750  -29.2890    6.3430 N.ar  201  WWP201     -0.2247
     19  N06      -44.2250  -29.3800    4.5360 N.ar  201  WWP201     -0.2182
     20  N08      -46.0330  -28.9890    2.9300 N.pl3 201  WWP201     -0.2623
     21  N21      -48.1460  -28.6640    3.9050 N.2   201  WWP201     -0.0513
     22 H171      -44.3200  -33.8590   -0.1240 H     201  WWP201      0.0623
     23 H201      -47.7010  -28.6100    1.9820 H     201  WWP201      0.1115
     24 H051      -43.4880  -29.6270    6.3750 H     201  WWP201      0.1048
     25 H091      -45.6300  -28.5440    1.0310 H     201  WWP201      0.0515
     26 H092      -44.3420  -28.6360    1.9310 H     201  WWP201      0.0515
     27 H111      -42.9270  -30.5260    1.5770 H     201  WWP201      0.0626
     28 H181      -46.4450  -32.9410   -0.1730 H     201  WWP201      0.0618
     29 H191      -46.8050  -30.8140    0.6540 H     201  WWP201      0.0621
     30 H012      -48.6360  -27.9100    6.5920 H     201  WWP201      0.2885
     31 H011      -48.8300  -29.3870    6.5780 H     201  WWP201      0.2885
@<TRIPOS>BOND
     1    15     2    1
     2    28    12    1
     3    22     3    1
     4    12     3   ar
     5    12    13   ar
     6     3    11   ar
     7    29    13    1
     8    13     1   ar
     9    11     2    1
    10    11    10   ar
    11     2    14    1
    12     2    16    1
    13    25     9    1
    14     1    10   ar
    15     1     9    1
    16    10    27    1
    17     9    26    1
    18     9    20    1
    19    23     4    1
    20     4    20    1
    21     4    21    1
    22    20     8    1
    23    21     5    2
    24     8    19   ar
    25     8     6   ar
    26    19     7   ar
    27     5     6    1
    28     5    17    1
    29     6    18   ar
    30     7    18   ar
    31     7    24    1
    32    17    31    1
    33    17    30    1
