@<TRIPOS>MOLECULE
/home/pku/3cl/gett_pdb/7MB2/7MB2_mol2/ligand/7MB2_YVM.pdb
 89 91 0 0 0
SMALL
GASTEIGER

@<TRIPOS>ATOM
      1  C10       21.2980  -10.1120   30.0740 C.2   401  YVM401      0.2162
      2  C13       22.6580  -15.0610   29.2770 C.3   401  YVM401     -0.0075
      3  C15       24.1710  -16.9090   30.1280 C.2   401  YVM401      0.3074
      4  C20       25.6540  -18.4890   31.1970 C.3   401  YVM401      0.0896
      5  C21       27.1150  -18.3380   31.7200 C.3   401  YVM401     -0.0306
      6  C22       23.3520   -9.5010   31.0310 C.3   401  YVM401      0.0123
      7  C24       26.1650  -12.8500   21.2820 C.ar  401  YVM401     -0.0617
      8  C26       27.4230  -12.7360   23.5710 C.ar  401  YVM401     -0.0585
      9  C28       25.0450  -13.7640   23.4410 C.ar  401  YVM401     -0.0585
     10  C01       25.5690   -9.9560   26.4740 C.2   401  YVM401      0.2343
     11  C04       25.3680  -12.4900   26.2060 C.3   401  YVM401      0.1033
     12  C05       26.2480  -13.6220   25.7510 C.3   401  YVM401     -0.0007
     13  C07       23.0320  -13.5200   29.2040 C.3   401  YVM401      0.0275
     14  C08       21.8590  -12.6250   29.5510 C.3   401  YVM401     -0.0231
     15  C09       22.4480  -11.2660   29.8970 C.3   401  YVM401      0.0386
     16  C14       23.9670  -15.8450   29.0440 C.3   401  YVM401      0.0498
     17  C18       24.9060  -12.7260   27.6450 C.2   401  YVM401      0.2339
     18  C23       23.3770  -11.0930   30.8270 C.3   401  YVM401     -0.0262
     19  C25       27.3650  -12.4620   22.0790 C.ar  401  YVM401     -0.0615
     20  C27       26.2390  -13.3730   24.2530 C.ar  401  YVM401     -0.0451
     21  C29       24.9770  -13.5040   21.9510 C.ar  401  YVM401     -0.0615
     22  C30       26.4450   -8.7080   26.6240 C.3   401  YVM401      0.1033
     23  C32       27.3250   -8.5680   25.4150 C.3   401  YVM401     -0.0007
     24  C33       24.8530   -7.3890   21.6930 C.ar  401  YVM401      0.1234
     25  C34       25.2340   -6.3410   22.7250 C.ar  401  YVM401     -0.0262
     26  C35       26.0620   -6.7370   23.9590 C.ar  401  YVM401     -0.0558
     27  C36       26.4790   -8.1580   24.1710 C.ar  401  YVM401     -0.0450
     28  C37       26.0790   -9.2420   23.1540 C.ar  401  YVM401     -0.0558
     29  C38       25.2770   -8.8600   21.8960 C.ar  401  YVM401     -0.0262
     30  C40       26.1880   -6.4980   27.7390 C.2   401  YVM401      0.2158
     31  C41       25.3730   -5.2080   28.0090 C.3   401  YVM401      0.0474
     32  C43       24.4800   -5.4600   29.2100 C.3   401  YVM401      0.0571
     33  C45       24.6140   -5.8520   31.5540 C.3   401  YVM401      0.1080
     34  C46       25.5350   -6.9140   32.2490 C.1   401  YVM401     -0.0773
     35  C47       26.2280   -7.7630   32.7820 C.1   401  YVM401     -0.1169
     36  F39       24.1450   -7.0380   20.6220 F     401  YVM401     -0.2055
     37  N02       26.1950  -11.2560   26.2320 N.am  401  YVM401     -0.3022
     38  N06       23.5380  -13.2380   27.8380 N.am  401  YVM401     -0.3106
     39  N11       21.8470   -9.0220   30.7180 N.am  401  YVM401     -0.3151
     40  N31       25.6500   -7.5430   26.8740 N.am  401  YVM401     -0.3036
     41  O03       24.3750   -9.9460   26.6070 O.2   401  YVM401     -0.2738
     42  O12       20.2130  -10.1710   29.5920 O.2   401  YVM401     -0.2755
     43  O16       25.4410  -17.5440   30.1550 O.3   401  YVM401     -0.4649
     44  O17       23.2080  -17.2200   30.8530 O.2   401  YVM401     -0.2508
     45  O19       25.6600  -12.5360   28.5980 O.2   401  YVM401     -0.2738
     46  O42       27.2820   -6.6190   28.1980 O.2   401  YVM401     -0.2757
     47  O44       25.2840   -5.3590   30.3740 O.3   401  YVM401     -0.3669
     48 H131       22.2410  -15.2930   30.1000 H     401  YVM401      0.0327
     49 H201       25.5250  -19.3580   30.8670 H     401  YVM401      0.0694
     50 H202       25.0500  -18.3280   31.8980 H     401  YVM401      0.0694
     51 H211       27.6990  -18.2350   30.9920 H     401  YVM401      0.0262
     52 H212       27.3540  -19.1040   32.2070 H     401  YVM401      0.0262
     53 H213       27.1720  -17.5830   32.2760 H     401  YVM401      0.0262
     54 H221       23.5770   -9.2880   31.9180 H     401  YVM401      0.0462
     55 H222       23.9490   -9.0920   30.4320 H     401  YVM401      0.0462
     56 H241       26.1480  -12.6890   20.3670 H     401  YVM401      0.0618
     57 H261       28.1810  -12.5130   24.0590 H     401  YVM401      0.0620
     58 H281       24.3270  -14.1780   23.8620 H     401  YVM401      0.0620
     59 H041       24.6310  -12.4230   25.6290 H     401  YVM401      0.0598
     60 H052       27.1130  -13.5580   26.1100 H     401  YVM401      0.0336
     61 H051       25.8800  -14.4590   25.9670 H     401  YVM401      0.0336
     62 H071       23.6940  -13.3320   29.8430 H     401  YVM401      0.0501
     63 H082       21.3900  -12.9730   30.2860 H     401  YVM401      0.0290
     64 H081       21.2790  -12.5500   28.8170 H     401  YVM401      0.0290
     65 H091       22.9940  -11.1190   29.1470 H     401  YVM401      0.0395
     66 H141       24.6910  -15.2470   29.0620 H     401  YVM401      0.0381
     67 H142       23.9290  -16.2650   28.2050 H     401  YVM401      0.0381
     68 H232       24.2180  -11.3800   30.5210 H     401  YVM401      0.0288
     69 H231       23.1450  -11.5370   31.6210 H     401  YVM401      0.0288
     70 H251       28.0830  -12.0480   21.6590 H     401  YVM401      0.0618
     71 H291       24.2240  -13.7390   21.4600 H     401  YVM401      0.0618
     72 H301       27.0020   -8.8020   27.3740 H     401  YVM401      0.0598
     73 H322       27.9730   -7.9080   25.5790 H     401  YVM401      0.0336
     74 H321       27.7500   -9.3870   25.2450 H     401  YVM401      0.0336
     75 H341       24.9670   -5.4590   22.6090 H     401  YVM401      0.0646
     76 H351       26.3050   -6.0880   24.5780 H     401  YVM401      0.0621
     77 H371       26.3210  -10.1270   23.3000 H     401  YVM401      0.0621
     78 H381       25.0510   -9.5060   21.2680 H     401  YVM401      0.0646
     79 H411       24.8470   -5.0000   27.2590 H     401  YVM401      0.0381
     80 H412       25.9550   -4.4940   28.1890 H     401  YVM401      0.0381
     81 H431       24.1040   -6.3190   29.1550 H     401  YVM401      0.0565
     82 H432       23.7940   -4.8190   29.2390 H     401  YVM401      0.0565
     83 H451       23.7990   -6.2500   31.3120 H     401  YVM401      0.0697
     84 H452       24.4520   -5.1400   32.1450 H     401  YVM401      0.0697
     85 H471       26.7660   -8.3780   33.1780 H     401  YVM401      0.1229
     86 H021       27.0520  -11.3060   26.1040 H     401  YVM401      0.1495
     87 H061       23.0260  -13.3760   27.1510 H     401  YVM401      0.1490
     88 H111       21.6040   -8.1970   30.5990 H     401  YVM401      0.1487
     89 H311       24.8640   -7.4600   26.5170 H     401  YVM401      0.1495
@<TRIPOS>BOND
     1    56     7    1
     2    36    24    1
     3    78    29    1
     4     7    21   ar
     5     7    19   ar
     6    71    21    1
     7    70    19    1
     8    24    29   ar
     9    24    25   ar
    10    29    28   ar
    11    21     9   ar
    12    19     8   ar
    13    75    25    1
    14    25    26   ar
    15    28    77    1
    16    28    27   ar
    17     9    58    1
    18     9    20   ar
    19     8    57    1
    20     8    20   ar
    21    26    27   ar
    22    26    76    1
    23    27    23    1
    24    20    12    1
    25    74    23    1
    26    23    73    1
    27    23    22    1
    28    59    11    1
    29    12    61    1
    30    12    60    1
    31    12    11    1
    32    86    37    1
    33    11    37    1
    34    11    17    1
    35    37    10   am
    36    10    41    2
    37    10    22    1
    38    89    40    1
    39    22    40    1
    40    22    72    1
    41    40    30   am
    42    87    38    1
    43    79    31    1
    44    17    38   am
    45    17    45    2
    46    30    31    1
    47    30    46    2
    48    38    13    1
    49    31    80    1
    50    31    32    1
    51    67    16    1
    52    64    14    1
    53    16    66    1
    54    16     2    1
    55    16     3    1
    56    65    15    1
    57    81    32    1
    58    13     2    1
    59    13    14    1
    60    13    62    1
    61    32    82    1
    62    32    47    1
    63     2    48    1
    64    14    15    1
    65    14    63    1
    66    42     1    2
    67    15     1    1
    68    15    18    1
    69     1    39   am
    70     3    43    1
    71     3    44    2
    72    43     4    1
    73    47    33    1
    74    55     6    1
    75    68    18    1
    76    88    39    1
    77    39     6    1
    78    18     6    1
    79    18    69    1
    80    49     4    1
    81    51     5    1
    82     6    54    1
    83     4     5    1
    84     4    50    1
    85    83    33    1
    86    33    84    1
    87    33    34    1
    88     5    52    1
    89     5    53    1
    90    34    35    3
    91    35    85    1
