@<TRIPOS>MOLECULE
/home/pku/3cl/gett_pdb/5SR7/5SR7_mol2/ligand/5SR7_QZO.pdb
 38 42 0 0 0
SMALL
GASTEIGER

@<TRIPOS>ATOM
      1  N1       -45.3940  -29.1260    2.6140 N.pl3 201  QZO201     -0.3143
      2  C16      -46.2170  -30.0220    1.7960 C.3   201  QZO201      0.0172
      3  C17      -45.2810  -30.9140    1.0230 C.3   201  QZO201     -0.0136
      4  C15      -44.1680  -29.3780    5.9120 C.ar  201  QZO201      0.1204
      5  C14      -46.3870  -29.3200    6.1480 C.ar  201  QZO201      0.1442
      6  C13      -48.8140  -29.0480    3.4000 C.ar  201  QZO201     -0.0491
      7  O2       -43.9870  -33.3980    0.4310 O.co2 201  QZO201     -0.5495
      8  C12      -50.1850  -29.0090    3.5490 C.ar  201  QZO201     -0.0257
      9  C11      -50.7430  -29.0820    4.8170 C.ar  201  QZO201      0.1254
     10  C10      -49.9810  -29.1860    5.9500 C.ar  201  QZO201     -0.0025
     11  C9       -48.6010  -29.2220    5.8010 C.ar  201  QZO201      0.0515
     12  C8       -48.0000  -29.1570    4.5290 C.ar  201  QZO201      0.0124
     13  C7       -46.5730  -29.2270    4.7550 C.ar  201  QZO201      0.0663
     14  C6       -45.4020  -29.1990    3.9660 C.ar  201  QZO201      0.1343
     15  C5       -44.4900  -28.2600    1.8590 C.3   201  QZO201      0.0138
     16  C4       -43.4600  -29.0600    1.0870 C.3   201  QZO201     -0.0334
     17  C3       -43.8620  -30.4770    0.7230 C.3   201  QZO201     -0.0265
     18  C2       -44.1240  -31.5210    1.7890 C.3   201  QZO201      0.0063
     19  C1       -43.7840  -32.9450    1.5250 C.2   201  QZO201      0.0454
     20  O1       -43.3120  -33.5840    2.4220 O.co2 201  QZO201     -0.5495
     21  F1       -52.1010  -29.0430    4.9320 F     201  QZO201     -0.2054
     22  N2       -47.6020  -29.3220    6.7560 N.ar  201  QZO201     -0.3389
     23  N3       -45.1950  -29.4010    6.7550 N.ar  201  QZO201     -0.2178
     24  N4       -44.2150  -29.2840    4.5760 N.ar  201  QZO201     -0.2200
     25  H13      -46.7660  -29.5020    1.1780 H     201  QZO201      0.0467
     26  H12      -46.8000  -30.5620    2.3700 H     201  QZO201      0.0467
     27  H14      -45.6990  -31.5180    0.3680 H     201  QZO201      0.0325
     28  H11      -43.3140  -29.4330    6.3000 H     201  QZO201      0.1048
     29  H9       -48.4250  -29.0020    2.5480 H     201  QZO201      0.0625
     30  H8       -50.7290  -28.9440    2.7970 H     201  QZO201      0.0646
     31  H7       -50.3700  -29.2310    6.8040 H     201  QZO201      0.0667
     32  H5       -45.0100  -27.7150    1.2360 H     201  QZO201      0.0464
     33  H6       -44.0270  -27.6550    2.4800 H     201  QZO201      0.0464
     34  H4       -43.2510  -28.5720    0.2670 H     201  QZO201      0.0283
     35  H3       -42.6370  -29.1010    1.6100 H     201  QZO201      0.0283
     36  H2       -43.4720  -30.8370   -0.1050 H     201  QZO201      0.0311
     37  H1       -44.0060  -31.2200    2.7170 H     201  QZO201      0.0366
     38  H10      -47.7320  -29.3750    7.6020 H     201  QZO201      0.1673
@<TRIPOS>UNITY_ATOM_ATTR
20 1
charge -1
@<TRIPOS>BOND
     1    36    17    1
     2    34    16    1
     3    27     3    1
     4     7    19   ar
     5    17     3    1
     6    17    16    1
     7    17    18    1
     8     3    18    1
     9     3     2    1
    10    16    35    1
    11    16    15    1
    12    25     2    1
    13    32    15    1
    14    19    18    1
    15    19    20   ar
    16    18    37    1
    17     2    26    1
    18     2     1    1
    19    15    33    1
    20    15     1    1
    21    29     6    1
    22     1    14    1
    23    30     8    1
    24     6     8   ar
    25     6    12   ar
    26     8     9   ar
    27    14    24   ar
    28    14    13   ar
    29    12    13   ar
    30    12    11   ar
    31    24     4   ar
    32    13     5   ar
    33     9    21    1
    34     9    10   ar
    35    11    10   ar
    36    11    22   ar
    37     4    28    1
    38     4    23   ar
    39    10    31    1
    40     5    23   ar
    41     5    22   ar
    42    22    38    1
