@<TRIPOS>MOLECULE
/home/pku/3cl/gett_pdb/7RNH/7RNH_mol2/ligand/7RNH_5ZW.pdb
 23 25 0 0 0
SMALL
GASTEIGER

@<TRIPOS>ATOM
      1  C1       -11.4280  -40.6750   17.2420 C.ar  401  5ZW401      0.1442
      2  C2       -11.8840  -39.5140   18.0870 C.2   401  5ZW401      0.2672
      3  C5       -13.8430  -40.8440   18.9600 C.3   401  5ZW401      0.1152
      4  C6       -15.2680  -40.4660   18.5720 C.3   401  5ZW401      0.1123
      5  C8       -14.8850  -38.1710   19.3010 C.3   401  5ZW401      0.1123
      6  C9       -13.4530  -38.5350   19.6730 C.3   401  5ZW401      0.1152
      7  C10      -17.1400  -39.1350   19.4450 C.ar  401  5ZW401      0.0480
      8  O3       -11.1930  -38.4820   18.0200 O.2   401  5ZW401     -0.2682
      9  C11      -18.0730  -39.9570   18.7790 C.ar  401  5ZW401      0.0154
     10  C12      -19.4460  -39.7020   18.8710 C.ar  401  5ZW401      0.0127
     11  C13      -19.8860  -38.6190   19.6290 C.ar  401  5ZW401      0.0578
     12  C14      -18.9840  -37.7940   20.2960 C.ar  401  5ZW401      0.0127
     13  C15      -17.6280  -38.0540   20.2010 C.ar  401  5ZW401      0.0154
     14  C18      -10.1650  -42.7510   17.3420 C.ar  401  5ZW401      0.3715
     15  C21      -11.2160  -41.9780   15.2220 C.ar  401  5ZW401      0.2848
     16  C23      -11.7130  -40.8220   15.9270 C.ar  401  5ZW401      0.0865
     17  N17      -10.6850  -41.6100   17.9240 N.ar  401  5ZW401     -0.1860
     18  N20      -10.4550  -42.8810   15.9920 N.ar  401  5ZW401     -0.1517
     19  N4       -12.9880  -39.6540   18.8480 N.am  401  5ZW401     -0.2713
     20  N7       -15.7470  -39.3450   19.4020 N.pl3 401  5ZW401     -0.3041
     21  O19       -9.5050  -43.5650   17.9800 O.2   401  5ZW401     -0.2425
     22  O22      -11.4300  -42.1870   14.0330 O.2   401  5ZW401     -0.2650
     23 CL16      -21.6110  -38.2520   19.7810 Cl    401  5ZW401     -0.0822
@<TRIPOS>BOND
     1    22    15    2
     2    15    16   ar
     3    15    18   ar
     4    16     1   ar
     5    18    14   ar
     6     1    17   ar
     7     1     2    1
     8    14    17   ar
     9    14    21    2
    10     8     2    2
    11     2    19   am
    12     4     3    1
    13     4    20    1
    14     9    10   ar
    15     9     7   ar
    16    19     3    1
    17    19     6    1
    18    10    11   ar
    19     5    20    1
    20     5     6    1
    21    20     7    1
    22     7    13   ar
    23    11    23    1
    24    11    12   ar
    25    13    12   ar
