QJ0
  -OEChem-02242320033D

 26 28  0     0  0  0  0  0  0999 V2000
    1.3510   -0.8930    0.0010 C   0  0  0  0  0  0  0  0  0  0  0  0
   -5.1170    0.6510   -0.0010 C   0  0  0  0  0  0  0  0  0  0  0  0
   -2.5380   -0.2620    0.0000 C   0  0  0  0  0  0  0  0  0  0  0  0
    2.2360    0.1810    0.0010 C   0  0  0  0  0  0  0  0  0  0  0  0
    3.5940   -0.0930    0.0010 C   0  0  0  0  0  0  0  0  0  0  0  0
    4.0180   -1.4130    0.0020 C   0  0  0  0  0  0  0  0  0  0  0  0
    1.8510   -2.2060   -0.0040 C   0  0  0  0  0  0  0  0  0  0  0  0
   -0.3910   -2.3670    0.0020 C   0  0  0  0  0  0  0  0  0  0  0  0
   -0.1190   -1.0150    0.0010 C   0  0  0  0  0  0  0  0  0  0  0  0
   -1.0620    0.0430    0.0000 C   0  0  0  0  0  0  0  0  0  0  0  0
    3.1610   -2.4120    0.0020 N   0  0  0  0  0  0  0  0  0  0  0  0
    0.7700   -3.0620   -0.0060 N   0  0  0  0  0  0  0  0  0  0  0  0
   -5.4640   -0.6180    0.0050 N   0  0  0  0  0  0  0  0  0  0  0  0
   -6.7430   -0.7350    0.0040 N   0  0  0  0  0  0  0  0  0  0  0  0
   -7.2990    0.4280   -0.0040 N   0  0  0  0  0  0  0  0  0  0  0  0
   -6.2610    1.3760   -0.0010 N   0  0  0  0  0  0  0  0  0  0  0  0
   -0.6800    1.1960   -0.0000 O   0  0  0  0  0  0  0  0  0  0  0  0
   -3.4740    1.2870   -0.0010 S   0  0  0  0  0  0  0  0  0  0  0  0
    4.8540    1.3170   -0.0000 Br  0  0  0  0  0  0  0  0  0  0  0  0
   -2.7890   -0.8390   -0.8900 H   0  0  0  0  0  0  0  0  0  0  0  0
   -2.7890   -0.8390    0.8900 H   0  0  0  0  0  0  0  0  0  0  0  0
    1.8750    1.1990   -0.0010 H   0  0  0  0  0  0  0  0  0  0  0  0
    5.0770   -1.6260    0.0030 H   0  0  0  0  0  0  0  0  0  0  0  0
   -1.3780   -2.8040    0.0020 H   0  0  0  0  0  0  0  0  0  0  0  0
    0.8330   -4.0290   -0.0070 H   0  0  0  0  0  0  0  0  0  0  0  0
   -6.3450    2.3420   -0.0020 H   0  0  0  0  0  0  0  0  0  0  0  0
  5 19  1  0  0  0  0
  5  6  2  0  0  0  0
  6 11  1  0  0  0  0
  7 11  2  0  0  0  0
  7 12  1  0  0  0  0
  8 12  1  0  0  0  0
  8  9  2  0  0  0  0
 10 17  2  0  0  0  0
  3 10  1  0  0  0  0
  3 18  1  0  0  0  0
  2 18  1  0  0  0  0
  2 13  2  0  0  0  0
 13 14  1  0  0  0  0
 14 15  2  0  0  0  0
 15 16  1  0  0  0  0
  9 10  1  0  0  0  0
  1  9  1  0  0  0  0
  1  4  2  0  0  0  0
  4  5  1  0  0  0  0
  1  7  1  0  0  0  0
  2 16  1  0  0  0  0
  3 20  1  0  0  0  0
  3 21  1  0  0  0  0
  4 22  1  0  0  0  0
  6 23  1  0  0  0  0
  8 24  1  0  0  0  0
 12 25  1  0  0  0  0
 16 26  1  0  0  0  0
M  END
> <OPENEYE_ISO_SMILES>
c1c(cnc2c1c(c[nH]2)C(=O)CSc3[nH]nnn3)Br

> <OPENEYE_INCHI>
InChI=1S/C10H7BrN6OS/c11-5-1-6-7(3-13-9(6)12-2-5)8(18)4-19-10-14-16-17-15-10/h1-3H,4H2,(H,12,13)(H,14,15,16,17)

> <OPENEYE_INCHIKEY>
QXNLGIPKEFPOOU-UHFFFAOYSA-N

> <FORMULA>
C10H7BrN6OS

$$$$
