@<TRIPOS>MOLECULE
/home/pku/3cl/gett_pdb/5RV7/5RV7_mol2/ligand/5RV7_JNZ.pdb
 17 18 0 0 0
SMALL
GASTEIGER

@<TRIPOS>ATOM
      1  C8       -47.6900  -29.1000    3.4140 C.ar  201  JNZ201     -0.0610
      2  C7       -48.7670  -28.7240    4.2230 C.ar  201  JNZ201     -0.0597
      3  C9       -46.4580  -29.4380    3.9740 C.ar  201  JNZ201     -0.0492
      4  C6       -48.6160  -28.6900    5.6050 C.ar  201  JNZ201     -0.0362
      5  C10      -46.3010  -29.4100    5.3760 C.ar  201  JNZ201      0.0409
      6  C5       -47.3600  -29.0400    6.1750 C.ar  201  JNZ201      0.0676
      7  C2       -45.2200  -29.6820    6.2910 C.ar  201  JNZ201      0.1456
      8  N3       -45.6450  -29.4850    7.5200 N.ar  201  JNZ201     -0.1581
      9  N4       -46.9250  -29.1010    7.4460 N.ar  201  JNZ201     -0.2752
     10  N1       -43.8940  -30.1120    5.9210 N.pl3 201  JNZ201     -0.3413
     11  H8       -47.7950  -29.1190    2.4900 H     201  JNZ201      0.0618
     12  H7       -49.5830  -28.4980    3.8380 H     201  JNZ201      0.0618
     13  H9       -45.7480  -29.6880    3.4280 H     201  JNZ201      0.0625
     14  H6       -49.3280  -28.4430    6.1500 H     201  JNZ201      0.0639
     15  HN4      -47.4110  -28.9130    8.1300 H     201  JNZ201      0.1890
     16  HN1      -43.2110  -29.8270    6.3600 H     201  JNZ201      0.1438
     17 HN1A      -43.7860  -30.6530    5.2620 H     201  JNZ201      0.1438
@<TRIPOS>BOND
     1    11     1    1
     2     1     3   ar
     3     1     2   ar
     4    13     3    1
     5    12     2    1
     6     3     5   ar
     7     2     4   ar
     8    17    10    1
     9     5     6   ar
    10     5     7   ar
    11     4    14    1
    12     4     6   ar
    13    10     7    1
    14    10    16    1
    15     6     9   ar
    16     7     8   ar
    17     9     8   ar
    18     9    15    1
