@<TRIPOS>MOLECULE
/home/pku/3cl/gett_pdb/5SOP/5SOP_mol2/ligand/5SOP_RYI.pdb
 39 42 0 0 0
SMALL
GASTEIGER

@<TRIPOS>ATOM
      1  C17      -44.2520  -29.3860    5.8650 C.ar  201  RYI201      0.1204
      2  C15      -46.5380  -29.0930    6.1200 C.ar  201  RYI201      0.1432
      3  C13      -48.7590  -28.8050    5.7950 C.ar  201  RYI201      0.0042
      4  C12      -48.1570  -28.8850    4.5020 C.ar  201  RYI201     -0.0318
      5  C11      -46.7090  -29.0780    4.7160 C.ar  201  RYI201      0.0585
      6  C10      -45.5350  -29.2200    3.8860 C.ar  201  RYI201      0.1338
      7  C20      -44.8870  -31.6430    0.8720 C.3   201  RYI201      0.0728
      8  C19      -44.2500  -29.3170    1.7020 C.3   201  RYI201      0.0207
      9  C03      -42.2310  -31.4350    0.4630 C.3   201  RYI201      0.0664
     10  C04      -43.0310  -30.4130   -0.3600 C.3   201  RYI201     -0.0250
     11  C05      -44.4220  -30.2100    0.4140 C.3   201  RYI201      0.0073
     12  C06      -45.4980  -29.5700   -0.4860 C.3   201  RYI201     -0.0430
     13  C07      -46.7990  -29.3600    0.2790 C.3   201  RYI201     -0.0366
     14  C08      -46.5970  -28.5950    1.6230 C.3   201  RYI201      0.0136
     15  N09      -45.5290  -29.2550    2.4590 N.pl3 201  RYI201     -0.3140
     16  N14      -47.7470  -28.9450    6.7270 N.ar  201  RYI201     -0.3457
     17  N16      -45.2980  -29.2600    6.6990 N.ar  201  RYI201     -0.2178
     18  N18      -44.3320  -29.3780    4.4920 N.ar  201  RYI201     -0.2200
     19  O01      -43.2470  -32.7970    2.5300 O.2   201  RYI201     -0.1743
     20  O21      -43.4540  -33.8100    0.3220 O.2   201  RYI201     -0.1743
     21  S02      -43.4220  -32.6180    1.1180 S.O2  201  RYI201     -0.0304
     22 H171      -43.2640  -29.5150    6.3120 H     201  RYI201      0.1048
     23 H131      -49.8310  -28.6870    5.9880 H     201  RYI201      0.0807
     24 H121      -48.6750  -28.8270    3.5800 H     201  RYI201      0.0640
     25 H202      -45.6190  -32.0520    0.1240 H     201  RYI201      0.0506
     26 H201      -45.5440  -31.5840    1.7900 H     201  RYI201      0.0506
     27 H191      -43.8850  -28.3010    1.3840 H     201  RYI201      0.0470
     28 H192      -43.4130  -29.7060    2.3390 H     201  RYI201      0.0470
     29 H032      -41.6350  -30.8450    1.2220 H     201  RYI201      0.0500
     30 H031      -41.3910  -31.8630   -0.1670 H     201  RYI201      0.0500
     31 H042      -42.4420  -29.4580   -0.4900 H     201  RYI201      0.0287
     32 H041      -43.1060  -30.8140   -1.4060 H     201  RYI201      0.0287
     33 H062      -45.1880  -28.5690   -0.9130 H     201  RYI201      0.0272
     34 H061      -45.6640  -30.2000   -1.3970 H     201  RYI201      0.0272
     35 H072      -47.2460  -30.3680    0.4750 H     201  RYI201      0.0281
     36 H071      -47.5590  -28.8620   -0.3960 H     201  RYI201      0.0281
     37 H082      -47.6030  -28.5690    2.0990 H     201  RYI201      0.0464
     38 H081      -46.3930  -27.4980    1.4320 H     201  RYI201      0.0464
     39 H141      -47.9830  -28.9240    7.7620 H     201  RYI201      0.1668
@<TRIPOS>BOND
     1    32    10    1
     2    34    12    1
     3    33    12    1
     4    31    10    1
     5    12    13    1
     6    12    11    1
     7    36    13    1
     8    10    11    1
     9    10     9    1
    10    30     9    1
    11    25     7    1
    12    13    35    1
    13    13    14    1
    14    20    21    2
    15    11     7    1
    16    11     8    1
    17     9    21    1
    18     9    29    1
    19     7    21    1
    20     7    26    1
    21    21    19    2
    22    27     8    1
    23    38    14    1
    24    14    37    1
    25    14    15    1
    26     8    28    1
    27     8    15    1
    28    15     6    1
    29    24     4    1
    30     6    18   ar
    31     6     5   ar
    32    18     1   ar
    33     4     5   ar
    34     4     3   ar
    35     5     2   ar
    36     3    23    1
    37     3    16   ar
    38     1    22    1
    39     1    17   ar
    40     2    17   ar
    41     2    16   ar
    42    16    39    1
