VZS
  -OEChem-02242320043D

 31 32  0     0  0  0  0  0  0999 V2000
   -2.0330    0.9730    0.4610 N   0  0  0  0  0  0  0  0  0  0  0  0
   -4.7670   -0.9440   -0.6030 N   0  0  0  0  0  0  0  0  0  0  0  0
    2.6960   -1.9180    0.0910 C   0  0  0  0  0  0  0  0  0  0  0  0
    2.7370   -3.4230    0.1590 C   0  0  0  0  0  0  0  0  0  0  0  0
    1.5210   -1.2470    0.3760 C   0  0  0  0  0  0  0  0  0  0  0  0
    1.4820    0.1380    0.3140 C   0  0  0  0  0  0  0  0  0  0  0  0
   -0.8950    0.2780    0.2660 C   0  0  0  0  0  0  0  0  0  0  0  0
   -4.4900    0.9750    0.2500 C   0  0  0  0  0  0  0  0  0  0  0  0
   -0.9390   -0.8380   -0.2140 O   0  0  0  0  0  0  0  0  0  0  0  0
   -3.2670    0.4090    0.1120 N   0  0  0  0  0  0  0  0  0  0  0  0
   -5.3670    0.1180   -0.1960 N   0  0  0  0  0  0  0  0  0  0  0  0
   -3.4790   -0.8120   -0.4350 C   0  0  0  0  0  0  0  0  0  0  0  0
    0.2920    0.8210    0.6020 N   0  0  0  0  0  0  0  0  0  0  0  0
    2.6280    0.8490   -0.0360 C   0  0  0  0  0  0  0  0  0  0  0  0
    2.5960    2.2070   -0.0980 O   0  0  0  0  0  0  0  0  0  0  0  0
    3.8080    2.8690   -0.4630 C   0  0  0  0  0  0  0  0  0  0  0  0
    3.8340   -1.2120   -0.2510 C   0  0  0  0  0  0  0  0  0  0  0  0
    3.8010    0.1690   -0.3200 C   0  0  0  0  0  0  0  0  0  0  0  0
   -1.9980    1.8620    0.8480 H   0  0  0  0  0  0  0  0  0  0  0  0
    2.4770   -3.8380   -0.8140 H   0  0  0  0  0  0  0  0  0  0  0  0
    3.7400   -3.7470    0.4360 H   0  0  0  0  0  0  0  0  0  0  0  0
    2.0230   -3.7730    0.9050 H   0  0  0  0  0  0  0  0  0  0  0  0
    0.6340   -1.8010    0.6460 H   0  0  0  0  0  0  0  0  0  0  0  0
   -4.7000    1.9540    0.6560 H   0  0  0  0  0  0  0  0  0  0  0  0
   -2.7230   -1.5420   -0.6840 H   0  0  0  0  0  0  0  0  0  0  0  0
    0.3240    1.6840    1.0440 H   0  0  0  0  0  0  0  0  0  0  0  0
    3.6450    3.9460   -0.4750 H   0  0  0  0  0  0  0  0  0  0  0  0
    4.5860    2.6270    0.2610 H   0  0  0  0  0  0  0  0  0  0  0  0
    4.1190    2.5370   -1.4540 H   0  0  0  0  0  0  0  0  0  0  0  0
    4.7490   -1.7410   -0.4720 H   0  0  0  0  0  0  0  0  0  0  0  0
    4.6910    0.7170   -0.5910 H   0  0  0  0  0  0  0  0  0  0  0  0
 15 16  1  0  0  0  0
 14 15  1  0  0  0  0
 14 18  2  0  0  0  0
 17 18  1  0  0  0  0
  6 14  1  0  0  0  0
  3 17  2  0  0  0  0
  6 13  1  0  0  0  0
  5  6  2  0  0  0  0
  7 13  1  0  0  0  0
  3  5  1  0  0  0  0
  3  4  1  0  0  0  0
  8 10  1  0  0  0  0
  8 11  2  0  0  0  0
  1  7  1  0  0  0  0
  7  9  2  0  0  0  0
  1 10  1  0  0  0  0
 10 12  1  0  0  0  0
  2 11  1  0  0  0  0
  2 12  2  0  0  0  0
  1 19  1  0  0  0  0
  4 20  1  0  0  0  0
  4 21  1  0  0  0  0
  4 22  1  0  0  0  0
  5 23  1  0  0  0  0
  8 24  1  0  0  0  0
 12 25  1  0  0  0  0
 13 26  1  0  0  0  0
 16 27  1  0  0  0  0
 16 28  1  0  0  0  0
 16 29  1  0  0  0  0
 17 30  1  0  0  0  0
 18 31  1  0  0  0  0
M  END
> <OPENEYE_ISO_SMILES>
Cc1ccc(c(c1)NC(=O)Nn2cnnc2)OC

> <OPENEYE_INCHI>
InChI=1S/C11H13N5O2/c1-8-3-4-10(18-2)9(5-8)14-11(17)15-16-6-12-13-7-16/h3-7H,1-2H3,(H2,14,15,17)

> <OPENEYE_INCHIKEY>
WMVVWYCMGLIOCC-UHFFFAOYSA-N

> <FORMULA>
C11H13N5O2

$$$$
