W4Y
  -OEChem-02242320043D

 32 33  0     0  0  0  0  0  0999 V2000
   -2.2060    1.1850   -0.7650 C   0  0  0  0  0  0  0  0  0  0  0  0
   -1.0950    1.8280   -0.3510 N   0  0  0  0  0  0  0  0  0  0  0  0
   -0.2010    1.2260    0.4510 C   0  0  0  0  0  0  0  0  0  0  0  0
   -1.9690   -2.0480    0.7500 C   0  0  0  0  0  0  0  0  0  0  0  0
    2.8190   -1.3000   -2.0740 C   0  0  0  0  0  0  0  0  0  0  0  0
    3.4130   -0.9650   -0.7050 C   0  0  0  0  0  0  0  0  0  0  0  0
    4.5480    0.0460   -0.8750 C   0  0  0  0  0  0  0  0  0  0  0  0
    1.6770   -1.3720    0.8970 C   0  0  0  0  0  0  0  0  0  0  0  0
    0.6220   -0.6640    1.7490 C   0  0  0  0  0  0  0  0  0  0  0  0
   -1.5010   -0.7530    0.4890 C   0  0  0  0  0  0  0  0  0  0  0  0
   -2.4350   -0.1440   -0.3420 C   0  0  0  0  0  0  0  0  0  0  0  0
   -3.1440   -2.2050    0.0980 C   0  0  0  0  0  0  0  0  0  0  0  0
   -0.3750   -0.0410    0.8750 N   0  0  0  0  0  0  0  0  0  0  0  0
   -3.4410   -1.0590   -0.5690 N   0  0  0  0  0  0  0  0  0  0  0  0
    2.3980   -0.4050    0.1310 O   0  0  0  0  0  0  0  0  0  0  0  0
   -3.0070    1.7460   -1.4920 O   0  0  0  0  0  0  0  0  0  0  0  0
    1.1920    2.0890    0.9460 S   0  0  0  0  0  0  0  0  0  0  0  0
   -0.9390    2.7410   -0.6380 H   0  0  0  0  0  0  0  0  0  0  0  0
   -1.4790   -2.7900    1.3640 H   0  0  0  0  0  0  0  0  0  0  0  0
    3.5930   -1.7270   -2.7120 H   0  0  0  0  0  0  0  0  0  0  0  0
    2.0100   -2.0210   -1.9530 H   0  0  0  0  0  0  0  0  0  0  0  0
    2.4300   -0.3910   -2.5340 H   0  0  0  0  0  0  0  0  0  0  0  0
    3.8020   -1.8740   -0.2450 H   0  0  0  0  0  0  0  0  0  0  0  0
    4.1600    0.9550   -1.3350 H   0  0  0  0  0  0  0  0  0  0  0  0
    4.9720    0.2850    0.1000 H   0  0  0  0  0  0  0  0  0  0  0  0
    5.3230   -0.3810   -1.5130 H   0  0  0  0  0  0  0  0  0  0  0  0
    2.3680   -1.9100    1.5460 H   0  0  0  0  0  0  0  0  0  0  0  0
    1.1870   -2.0770    0.2250 H   0  0  0  0  0  0  0  0  0  0  0  0
    0.1320   -1.3900    2.3990 H   0  0  0  0  0  0  0  0  0  0  0  0
    1.1010    0.1030    2.3580 H   0  0  0  0  0  0  0  0  0  0  0  0
   -3.7500   -3.0990    0.1050 H   0  0  0  0  0  0  0  0  0  0  0  0
   -4.2290   -0.9100   -1.1140 H   0  0  0  0  0  0  0  0  0  0  0  0
  6  7  1  0  0  0  0
  5  6  1  0  0  0  0
  6 15  1  0  0  0  0
  8 15  1  0  0  0  0
  8  9  1  0  0  0  0
  9 13  1  0  0  0  0
  4 10  1  0  0  0  0
  4 12  2  0  0  0  0
 10 13  1  0  0  0  0
  3 13  1  0  0  0  0
  3 17  2  0  0  0  0
 10 11  2  0  0  0  0
 12 14  1  0  0  0  0
  2  3  1  0  0  0  0
 11 14  1  0  0  0  0
  1 11  1  0  0  0  0
  1  2  1  0  0  0  0
  1 16  2  0  0  0  0
  2 18  1  0  0  0  0
  4 19  1  0  0  0  0
  5 20  1  0  0  0  0
  5 21  1  0  0  0  0
  5 22  1  0  0  0  0
  6 23  1  0  0  0  0
  7 24  1  0  0  0  0
  7 25  1  0  0  0  0
  7 26  1  0  0  0  0
  8 27  1  0  0  0  0
  8 28  1  0  0  0  0
  9 29  1  0  0  0  0
  9 30  1  0  0  0  0
 12 31  1  0  0  0  0
 14 32  1  0  0  0  0
M  END
> <OPENEYE_ISO_SMILES>
CC(C)OCCn1c2cc[nH]c2c(=O)[nH]c1=S

> <OPENEYE_INCHI>
InChI=1S/C11H15N3O2S/c1-7(2)16-6-5-14-8-3-4-12-9(8)10(15)13-11(14)17/h3-4,7,12H,5-6H2,1-2H3,(H,13,15,17)

> <OPENEYE_INCHIKEY>
FVJCUZCRPIMVLB-UHFFFAOYSA-N

> <FORMULA>
C11H15N3O2S

$$$$
