@<TRIPOS>MOLECULE
/home/pku/3cl/gett_pdb/5WKL/5WKL_mol2/ligand/5WKL_AVY.pdb
 30 31 0 0 0
SMALL
GASTEIGER

@<TRIPOS>ATOM
      1  C11      -20.9830   -1.2810    5.4980 C.3   401  AVY401      0.1287
      2  C12      -20.2840   -2.1190    6.5830 C.3   401  AVY401      0.0335
      3  C13      -20.7610   -3.5850    6.6290 C.3   401  AVY401      0.0818
      4  C14      -20.1410   -4.3300    7.7460 C.2   401  AVY401      0.2410
      5  C24      -22.1440   -7.8110    4.0620 C.3   401  AVY401      0.0738
      6  C25      -23.3110   -7.2590    4.8830 C.ar  401  AVY401     -0.0184
      7  C16      -22.4910   -4.7560    7.9300 C.3   401  AVY401      0.1156
      8  C02      -21.5500   -5.2250    2.4920 C.2   401  AVY401      0.4215
      9  C04      -20.9250   -2.8620    1.9730 C.3   401  AVY401      0.1761
     10  C05      -21.1330   -1.8380    0.8590 C.3   401  AVY401      0.0312
     11  C06      -20.5010   -2.3070   -0.4550 C.3   401  AVY401      0.0022
     12  C07      -20.8340   -1.3920   -1.6380 C.3   401  AVY401      0.0001
     13  C08      -18.9810   -2.4580   -0.3520 C.3   401  AVY401      0.0001
     14  C09      -21.4990   -2.3600    3.2940 C.2   401  AVY401      0.2614
     15  C17      -22.2600   -3.6270    6.8860 C.3   401  AVY401      0.0326
     16  C19      -20.6020    0.2000    5.4940 C.3   401  AVY401      0.2036
     17  C23      -22.2800   -7.5200    2.4890 C.3   401  AVY401      0.2148
     18  C26      -23.8010   -5.9710    4.7110 C.ar  401  AVY401     -0.0041
     19  C27      -24.8460   -5.5140    5.4970 C.ar  401  AVY401     -0.0003
     20  C28      -25.4030   -6.3430    6.4550 C.ar  401  AVY401     -0.0000
     21  C29      -24.9110   -7.6220    6.6290 C.ar  401  AVY401     -0.0003
     22  C30      -23.8620   -8.0770    5.8540 C.ar  401  AVY401     -0.0041
     23  N03      -21.6000   -4.0850    1.6170 N.am  401  AVY401     -0.1611
     24  N10      -20.5510   -1.7890    4.2200 N.am  401  AVY401     -0.2030
     25  N15      -21.2090   -5.0400    8.5220 N.am  401  AVY401     -0.2054
     26  O01      -20.7290   -5.3120    3.3600 O.2   401  AVY401     -0.2246
     27  O18      -18.9920   -4.4130    8.0080 O.2   401  AVY401     -0.2734
     28  O20      -21.2430    0.8210    4.4100 O.3   401  AVY401     -0.2185
     29  O21      -22.6510   -2.4420    3.5680 O.2   401  AVY401     -0.2715
     30  O22      -22.5650   -6.1670    2.2720 O.3   401  AVY401     -0.4332
@<TRIPOS>BOND
     1    12    11    1
     2    11    13    1
     3    11    10    1
     4    10     9    1
     5    23     9    1
     6    23     8   am
     7     9    14    1
     8    30    17    1
     9    30     8    1
    10    17     5    1
    11     8    26    2
    12    14    29    2
    13    14    24   am
    14     5     6    1
    15    24     1    1
    16    28    16    1
    17    18     6   ar
    18    18    19   ar
    19     6    22   ar
    20    16     1    1
    21    19    20   ar
    22     1     2    1
    23    22    21   ar
    24    20    21   ar
    25     2     3    1
    26     3    15    1
    27     3     4    1
    28    15     7    1
    29     4    27    2
    30     4    25   am
    31     7    25    1
