T3V
  -OEChem-02242320043D

 34 35  0     0  0  0  0  0  0999 V2000
   -3.1540    0.0290    0.0060 N   0  0  0  0  0  0  0  0  0  0  0  0
    3.1170    1.0500   -0.7850 C   0  0  0  0  0  0  0  0  0  0  0  0
    2.2990    0.2200   -0.0430 C   0  0  0  0  0  0  0  0  0  0  0  0
   -1.0290   -0.9550    0.6900 C   0  0  0  0  0  0  0  0  0  0  0  0
   -2.4830   -0.6890    1.0990 C   0  0  0  0  0  0  0  0  0  0  0  0
   -2.5670    1.2840   -0.4840 C   0  0  0  0  0  0  0  0  0  0  0  0
   -4.2850   -0.4580   -0.5420 C   0  0  0  0  0  0  0  0  0  0  0  0
   -0.4420    0.3000    0.2010 N   0  0  0  0  0  0  0  0  0  0  0  0
    2.5380   -1.1440   -0.0180 C   0  0  0  0  0  0  0  0  0  0  0  0
    1.0360    0.3450    2.1770 O   0  0  0  0  0  0  0  0  0  0  0  0
    3.5970   -1.6740   -0.7350 C   0  0  0  0  0  0  0  0  0  0  0  0
   -5.0310    0.3490   -1.5730 C   0  0  0  0  0  0  0  0  0  0  0  0
    4.4140   -0.8410   -1.4760 C   0  0  0  0  0  0  0  0  0  0  0  0
    4.1740    0.5200   -1.5020 C   0  0  0  0  0  0  0  0  0  0  0  0
   -1.1130    1.0180   -0.8920 C   0  0  0  0  0  0  0  0  0  0  0  0
    1.7390   -1.9570    0.7070 F   0  0  0  0  0  0  0  0  0  0  0  0
    0.9540    2.2930    0.6130 O   0  0  0  0  0  0  0  0  0  0  0  0
   -4.7030   -1.5460   -0.2050 O   0  0  0  0  0  0  0  0  0  0  0  0
    0.9520    0.8950    0.8690 S   0  0  0  0  0  0  0  0  0  0  0  0
    2.9280    2.1130   -0.8090 H   0  0  0  0  0  0  0  0  0  0  0  0
   -0.4660   -1.3110    1.5530 H   0  0  0  0  0  0  0  0  0  0  0  0
   -1.0000   -1.7050   -0.1000 H   0  0  0  0  0  0  0  0  0  0  0  0
   -2.5040   -0.0800    2.0030 H   0  0  0  0  0  0  0  0  0  0  0  0
   -2.9910   -1.6360    1.2810 H   0  0  0  0  0  0  0  0  0  0  0  0
   -3.1300    1.6400   -1.3460 H   0  0  0  0  0  0  0  0  0  0  0  0
   -2.5930    2.0330    0.3080 H   0  0  0  0  0  0  0  0  0  0  0  0
    3.7840   -2.7370   -0.7160 H   0  0  0  0  0  0  0  0  0  0  0  0
   -4.4640    1.2490   -1.8100 H   0  0  0  0  0  0  0  0  0  0  0  0
   -5.1610   -0.2470   -2.4770 H   0  0  0  0  0  0  0  0  0  0  0  0
   -6.0090    0.6270   -1.1790 H   0  0  0  0  0  0  0  0  0  0  0  0
    5.2400   -1.2540   -2.0360 H   0  0  0  0  0  0  0  0  0  0  0  0
    4.8100    1.1700   -2.0850 H   0  0  0  0  0  0  0  0  0  0  0  0
   -1.0920    0.4090   -1.7960 H   0  0  0  0  0  0  0  0  0  0  0  0
   -0.6040    1.9650   -1.0740 H   0  0  0  0  0  0  0  0  0  0  0  0
  9 16  1  0  0  0  0
  9 11  2  0  0  0  0
 11 13  1  0  0  0  0
 13 14  2  0  0  0  0
  2 14  1  0  0  0  0
  2  3  2  0  0  0  0
  3  9  1  0  0  0  0
  3 19  1  0  0  0  0
 10 19  2  0  0  0  0
 17 19  2  0  0  0  0
  8 19  1  0  0  0  0
  4  8  1  0  0  0  0
  4  5  1  0  0  0  0
  1  5  1  0  0  0  0
  1  6  1  0  0  0  0
  6 15  1  0  0  0  0
  8 15  1  0  0  0  0
  1  7  1  0  0  0  0
  7 18  2  0  0  0  0
  7 12  1  0  0  0  0
  2 20  1  0  0  0  0
  4 21  1  0  0  0  0
  4 22  1  0  0  0  0
  5 23  1  0  0  0  0
  5 24  1  0  0  0  0
  6 25  1  0  0  0  0
  6 26  1  0  0  0  0
 11 27  1  0  0  0  0
 12 28  1  0  0  0  0
 12 29  1  0  0  0  0
 12 30  1  0  0  0  0
 13 31  1  0  0  0  0
 14 32  1  0  0  0  0
 15 33  1  0  0  0  0
 15 34  1  0  0  0  0
M  END
> <OPENEYE_ISO_SMILES>
CC(=O)N1CCN(CC1)S(=O)(=O)c2ccccc2F

> <OPENEYE_INCHI>
InChI=1S/C12H15FN2O3S/c1-10(16)14-6-8-15(9-7-14)19(17,18)12-5-3-2-4-11(12)13/h2-5H,6-9H2,1H3

> <OPENEYE_INCHIKEY>
IMFVSIUUYBHKNQ-UHFFFAOYSA-N

> <FORMULA>
C12H15FN2O3S

$$$$
