ACP
  -OEChem-02242320013D

 49 51  0     1  0  0  0  0  0999 V2000
    1.2320   -0.2580   -7.1840 P   0  0  0  0  0  0  0  0  0  0  0  0
    1.7760    1.1100   -7.0460 O   0  0  0  0  0  0  0  0  0  0  0  0
    2.1620   -1.1070   -8.1880 O   0  0  0  0  0  0  0  0  0  0  0  0
   -0.2640   -0.1840   -7.7730 O   0  0  0  0  0  0  0  0  0  0  0  0
    0.1500   -0.1070   -4.4150 P   0  0  2  0  0  0  0  0  0  0  0  0
   -1.2250   -0.0390   -4.9560 O   0  0  0  0  0  0  0  0  0  0  0  0
    0.7420    1.3820   -4.2650 O   0  0  0  0  0  0  0  0  0  0  0  0
    1.2030   -1.0680   -5.5510 C   0  0  0  0  0  0  0  0  0  0  0  0
   -0.8170    0.0740   -2.0250 P   0  0  2  0  0  0  0  0  0  0  0  0
   -2.1780    0.1390   -2.6030 O   0  0  0  0  0  0  0  0  0  0  0  0
   -0.2090    1.5600   -1.9150 O   0  0  0  0  0  0  0  0  0  0  0  0
    0.1250   -0.8220   -2.9730 O   0  0  0  0  0  0  0  0  0  0  0  0
   -0.8880   -0.5860   -0.5580 O   0  0  0  0  0  0  0  0  0  0  0  0
   -1.7350    0.2510    0.2300 C   0  0  0  0  0  0  0  0  0  0  0  0
   -1.8460   -0.3230    1.6440 C   0  0  1  0  0  0  0  0  0  0  0  0
   -0.5470   -0.3600    2.2750 O   0  0  0  0  0  0  0  0  0  0  0  0
   -2.6940    0.6050    2.5400 C   0  0  1  0  0  0  0  0  0  0  0  0
   -4.0370    0.1270    2.6280 O   0  0  0  0  0  0  0  0  0  0  0  0
   -2.0000    0.5320    3.9210 C   0  0  1  0  0  0  0  0  0  0  0  0
   -2.8960    0.0080    4.9040 O   0  0  0  0  0  0  0  0  0  0  0  0
   -0.8140   -0.4300    3.6920 C   0  0  2  0  0  0  0  0  0  0  0  0
    0.3550    0.0110    4.4550 N   0  0  0  0  0  0  0  0  0  0  0  0
    1.3120    0.8850    4.0300 C   0  0  0  0  0  0  0  0  0  0  0  0
    2.2060    1.0520    4.9600 N   0  0  0  0  0  0  0  0  0  0  0  0
    1.8780    0.3040    6.0410 C   0  0  0  0  0  0  0  0  0  0  0  0
    2.4560    0.0820    7.3020 C   0  0  0  0  0  0  0  0  0  0  0  0
    3.6290    0.7210    7.6650 N   0  0  0  0  0  0  0  0  0  0  0  0
    1.8480   -0.7500    8.1400 N   0  0  0  0  0  0  0  0  0  0  0  0
    0.7290   -1.3630    7.8030 C   0  0  0  0  0  0  0  0  0  0  0  0
    0.1540   -1.1910    6.6310 N   0  0  0  0  0  0  0  0  0  0  0  0
    0.6890   -0.3770    5.7270 C   0  0  0  0  0  0  0  0  0  0  0  0
    2.1500   -0.6450   -9.0380 H   0  0  0  0  0  0  0  0  0  0  0  0
   -0.5810   -1.0940   -7.8470 H   0  0  0  0  0  0  0  0  0  0  0  0
    1.6370    1.2920   -3.9100 H   0  0  0  0  0  0  0  0  0  0  0  0
    2.2160   -1.1180   -5.1530 H   0  0  0  0  0  0  0  0  0  0  0  0
    0.8020   -2.0760   -5.6530 H   0  0  0  0  0  0  0  0  0  0  0  0
    0.6750    1.4730   -1.5350 H   0  0  0  0  0  0  0  0  0  0  0  0
   -2.7260    0.2960   -0.2210 H   0  0  0  0  0  0  0  0  0  0  0  0
   -1.3120    1.2540    0.2780 H   0  0  0  0  0  0  0  0  0  0  0  0
   -2.2810   -1.3220    1.6140 H   0  0  0  0  0  0  0  0  0  0  0  0
   -2.6760    1.6260    2.1570 H   0  0  0  0  0  0  0  0  0  0  0  0
   -4.5170    0.7450    3.1970 H   0  0  0  0  0  0  0  0  0  0  0  0
   -1.6400    1.5160    4.2200 H   0  0  0  0  0  0  0  0  0  0  0  0
   -3.6420    0.6210    4.9570 H   0  0  0  0  0  0  0  0  0  0  0  0
   -1.0900   -1.4460    3.9770 H   0  0  0  0  0  0  0  0  0  0  0  0
    1.3260    1.3660    3.0630 H   0  0  0  0  0  0  0  0  0  0  0  0
    4.0170    0.5630    8.5400 H   0  0  0  0  0  0  0  0  0  0  0  0
    4.0660    1.3230    7.0430 H   0  0  0  0  0  0  0  0  0  0  0  0
    0.2670   -2.0320    8.5140 H   0  0  0  0  0  0  0  0  0  0  0  0
  1  2  2  0  0  0  0
  1  3  1  0  0  0  0
  1  4  1  0  0  0  0
  1  8  1  0  0  0  0
  3 32  1  0  0  0  0
  4 33  1  0  0  0  0
  5  6  2  0  0  0  0
  5  7  1  0  0  0  0
  5  8  1  0  0  0  0
  5 12  1  0  0  0  0
  7 34  1  0  0  0  0
  8 35  1  0  0  0  0
  8 36  1  0  0  0  0
  9 10  2  0  0  0  0
  9 11  1  0  0  0  0
  9 12  1  0  0  0  0
  9 13  1  0  0  0  0
 11 37  1  0  0  0  0
 13 14  1  0  0  0  0
 14 15  1  0  0  0  0
 14 38  1  0  0  0  0
 14 39  1  0  0  0  0
 15 16  1  0  0  0  0
 15 17  1  0  0  0  0
 15 40  1  0  0  0  0
 16 21  1  0  0  0  0
 17 18  1  0  0  0  0
 17 19  1  0  0  0  0
 17 41  1  0  0  0  0
 18 42  1  0  0  0  0
 19 20  1  0  0  0  0
 19 21  1  0  0  0  0
 19 43  1  0  0  0  0
 20 44  1  0  0  0  0
 21 22  1  0  0  0  0
 21 45  1  0  0  0  0
 22 23  1  0  0  0  0
 22 31  1  0  0  0  0
 23 24  2  0  0  0  0
 23 46  1  0  0  0  0
 24 25  1  0  0  0  0
 25 26  1  0  0  0  0
 25 31  2  0  0  0  0
 26 27  1  0  0  0  0
 26 28  2  0  0  0  0
 27 47  1  0  0  0  0
 27 48  1  0  0  0  0
 28 29  1  0  0  0  0
 29 30  2  0  0  0  0
 29 49  1  0  0  0  0
 30 31  1  0  0  0  0
M  END
> <OPENEYE_ISO_SMILES>
c1nc(c2c(n1)n(cn2)[C@H]3[C@@H]([C@@H]([C@H](O3)CO[P@@](=O)(O)O[P@](=O)(CP(=O)(O)O)O)O)O)N

> <OPENEYE_INCHI>
InChI=1S/C11H18N5O12P3/c12-9-6-10(14-2-13-9)16(3-15-6)11-8(18)7(17)5(27-11)1-26-31(24,25)28-30(22,23)4-29(19,20)21/h2-3,5,7-8,11,17-18H,1,4H2,(H,22,23)(H,24,25)(H2,12,13,14)(H2,19,20,21)/t5-,7-,8-,11-/m1/s1

> <OPENEYE_INCHIKEY>
UFZTZBNSLXELAL-IOSLPCCCSA-N

> <FORMULA>
C11H18N5O12P3

$$$$
