GTP
  -OEChem-02242320023D

 48 50  0     1  0  0  0  0  0999 V2000
   -6.0300   -2.3670    0.6370 P   0  0  0  0  0  0  0  0  0  0  0  0
   -7.3260   -1.9960    0.0260 O   0  0  0  0  0  0  0  0  0  0  0  0
   -6.2850   -2.9820    2.1030 O   0  0  0  0  0  0  0  0  0  0  0  0
   -5.2960   -3.4630   -0.2860 O   0  0  0  0  0  0  0  0  0  0  0  0
   -5.1010   -1.0580    0.7580 O   0  0  0  0  0  0  0  0  0  0  0  0
   -4.8180    0.2060   -0.1990 P   0  0  1  0  0  0  0  0  0  0  0  0
   -4.7320   -0.2500   -1.6050 O   0  0  0  0  0  0  0  0  0  0  0  0
   -6.0170    1.2690   -0.0520 O   0  0  0  0  0  0  0  0  0  0  0  0
   -3.4290    0.9000    0.2260 O   0  0  0  0  0  0  0  0  0  0  0  0
   -2.4490    1.9650   -0.4790 P   0  0  1  0  0  0  0  0  0  0  0  0
   -2.3500    1.6620   -1.9250 O   0  0  0  0  0  0  0  0  0  0  0  0
   -3.0400    3.4500   -0.2820 O   0  0  0  0  0  0  0  0  0  0  0  0
   -0.9880    1.8760    0.1900 O   0  0  0  0  0  0  0  0  0  0  0  0
    0.1340    2.6220   -0.2870 C   0  0  0  0  0  0  0  0  0  0  0  0
    1.3600    2.3040    0.5700 C   0  0  1  0  0  0  0  0  0  0  0  0
    1.7490    0.9330    0.3780 O   0  0  0  0  0  0  0  0  0  0  0  0
    2.5480    3.1820    0.1320 C   0  0  1  0  0  0  0  0  0  0  0  0
    2.9940    3.9970    1.2180 O   0  0  0  0  0  0  0  0  0  0  0  0
    3.6450    2.1660   -0.2690 C   0  0  1  0  0  0  0  0  0  0  0  0
    4.9290    2.5930    0.1900 O   0  0  0  0  0  0  0  0  0  0  0  0
    3.1880    0.8860    0.4760 C   0  0  2  0  0  0  0  0  0  0  0  0
    3.7110   -0.3110   -0.1880 N   0  0  0  0  0  0  0  0  0  0  0  0
    3.0940   -1.0210   -1.1760 C   0  0  0  0  0  0  0  0  0  0  0  0
    3.8430   -2.0230   -1.5330 N   0  0  0  0  0  0  0  0  0  0  0  0
    4.9810   -2.0170   -0.7980 C   0  0  0  0  0  0  0  0  0  0  0  0
    6.1290   -2.8420   -0.7530 C   0  0  0  0  0  0  0  0  0  0  0  0
    6.2350   -3.8070   -1.4910 O   0  0  0  0  0  0  0  0  0  0  0  0
    7.1060   -2.5350    0.1290 N   0  0  0  0  0  0  0  0  0  0  0  0
    6.9780   -1.4540    0.9500 C   0  0  0  0  0  0  0  0  0  0  0  0
    7.9860   -1.1650    1.8350 N   0  0  0  0  0  0  0  0  0  0  0  0
    5.9160   -0.6790    0.9170 N   0  0  0  0  0  0  0  0  0  0  0  0
    4.9110   -0.9180    0.0660 C   0  0  0  0  0  0  0  0  0  0  0  0
   -6.8380   -3.7750    2.1060 H   0  0  0  0  0  0  0  0  0  0  0  0
   -4.4390   -3.7530    0.0550 H   0  0  0  0  0  0  0  0  0  0  0  0
   -6.1320    1.6110    0.8460 H   0  0  0  0  0  0  0  0  0  0  0  0
   -3.1330    3.7170    0.6430 H   0  0  0  0  0  0  0  0  0  0  0  0
    0.3350    2.3520   -1.3240 H   0  0  0  0  0  0  0  0  0  0  0  0
   -0.0860    3.6880   -0.2260 H   0  0  0  0  0  0  0  0  0  0  0  0
    1.1330    2.4800    1.6210 H   0  0  0  0  0  0  0  0  0  0  0  0
    2.2700    3.8030   -0.7200 H   0  0  0  0  0  0  0  0  0  0  0  0
    3.7410    4.5710    0.9980 H   0  0  0  0  0  0  0  0  0  0  0  0
    3.6520    2.0070   -1.3470 H   0  0  0  0  0  0  0  0  0  0  0  0
    5.2180    3.4380   -0.1800 H   0  0  0  0  0  0  0  0  0  0  0  0
    3.5030    0.9160    1.5190 H   0  0  0  0  0  0  0  0  0  0  0  0
    2.1280   -0.7860   -1.5990 H   0  0  0  0  0  0  0  0  0  0  0  0
    7.9030   -3.0860    0.1790 H   0  0  0  0  0  0  0  0  0  0  0  0
    8.7760   -1.7280    1.8700 H   0  0  0  0  0  0  0  0  0  0  0  0
    7.9090   -0.3990    2.4250 H   0  0  0  0  0  0  0  0  0  0  0  0
  1  2  2  0  0  0  0
  1  3  1  0  0  0  0
  1  4  1  0  0  0  0
  1  5  1  0  0  0  0
  3 33  1  0  0  0  0
  4 34  1  0  0  0  0
  5  6  1  0  0  0  0
  6  7  2  0  0  0  0
  6  8  1  0  0  0  0
  6  9  1  0  0  0  0
  8 35  1  0  0  0  0
  9 10  1  0  0  0  0
 10 11  2  0  0  0  0
 10 12  1  0  0  0  0
 10 13  1  0  0  0  0
 12 36  1  0  0  0  0
 13 14  1  0  0  0  0
 14 15  1  0  0  0  0
 14 37  1  0  0  0  0
 14 38  1  0  0  0  0
 15 16  1  0  0  0  0
 15 17  1  0  0  0  0
 15 39  1  0  0  0  0
 16 21  1  0  0  0  0
 17 18  1  0  0  0  0
 17 19  1  0  0  0  0
 17 40  1  0  0  0  0
 18 41  1  0  0  0  0
 19 20  1  0  0  0  0
 19 21  1  0  0  0  0
 19 42  1  0  0  0  0
 20 43  1  0  0  0  0
 21 22  1  0  0  0  0
 21 44  1  0  0  0  0
 22 23  1  0  0  0  0
 22 32  1  0  0  0  0
 23 24  2  0  0  0  0
 23 45  1  0  0  0  0
 24 25  1  0  0  0  0
 25 26  1  0  0  0  0
 25 32  2  0  0  0  0
 26 27  2  0  0  0  0
 26 28  1  0  0  0  0
 28 29  1  0  0  0  0
 28 46  1  0  0  0  0
 29 30  1  0  0  0  0
 29 31  2  0  0  0  0
 30 47  1  0  0  0  0
 30 48  1  0  0  0  0
 31 32  1  0  0  0  0
M  END
> <OPENEYE_ISO_SMILES>
c1nc2c(=O)[nH]c(nc2n1[C@H]3[C@@H]([C@@H]([C@H](O3)CO[P@](=O)(O)O[P@](=O)(O)OP(=O)(O)O)O)O)N

> <OPENEYE_INCHI>
InChI=1S/C10H16N5O14P3/c11-10-13-7-4(8(18)14-10)12-2-15(7)9-6(17)5(16)3(27-9)1-26-31(22,23)29-32(24,25)28-30(19,20)21/h2-3,5-6,9,16-17H,1H2,(H,22,23)(H,24,25)(H2,19,20,21)(H3,11,13,14,18)/t3-,5-,6-,9-/m1/s1

> <OPENEYE_INCHIKEY>
XKMLYUALXHKNFT-UUOKFMHZSA-N

> <FORMULA>
C10H16N5O14P3

$$$$
