V95
  -OEChem-02242320043D

 35 37  0     0  0  0  0  0  0999 V2000
    0.7550   -0.3700    0.3220 C   0  0  0  0  0  0  0  0  0  0  0  0
    1.7460   -1.3400    0.1480 C   0  0  0  0  0  0  0  0  0  0  0  0
   -6.1860    2.3780    0.3910 C   0  0  0  0  0  0  0  0  0  0  0  0
   -4.5080    0.7090    0.0800 C   0  0  0  0  0  0  0  0  0  0  0  0
   -2.7540   -0.8530   -0.1920 C   0  0  0  0  0  0  0  0  0  0  0  0
   -0.9080   -1.9970   -0.3330 C   0  0  0  0  0  0  0  0  0  0  0  0
   -0.5660   -0.6960    0.0860 C   0  0  0  0  0  0  0  0  0  0  0  0
    1.3980   -2.6350   -0.2630 C   0  0  0  0  0  0  0  0  0  0  0  0
    0.0970   -2.9590   -0.4970 C   0  0  0  0  0  0  0  0  0  0  0  0
    3.1590   -1.0010    0.3970 C   0  0  0  0  0  0  0  0  0  0  0  0
    3.6570    0.3570    0.0940 C   0  0  0  0  0  0  0  0  0  0  0  0
    4.9480    0.7310    0.4730 C   0  0  0  0  0  0  0  0  0  0  0  0
    5.4070    2.0000    0.1860 C   0  0  0  0  0  0  0  0  0  0  0  0
    4.5920    2.9010   -0.4750 C   0  0  0  0  0  0  0  0  0  0  0  0
    3.3120    2.5370   -0.8540 C   0  0  0  0  0  0  0  0  0  0  0  0
    2.8420    1.2700   -0.5790 C   0  0  0  0  0  0  0  0  0  0  0  0
   -4.0980   -0.5340   -0.2420 N   0  0  0  0  0  0  0  0  0  0  0  0
   -2.2480   -2.0260   -0.4840 N   0  0  0  0  0  0  0  0  0  0  0  0
   -1.7580    0.0070    0.1660 N   0  0  0  0  0  0  0  0  0  0  0  0
   -5.8170    1.0200    0.0320 O   0  0  0  0  0  0  0  0  0  0  0  0
   -3.6960    1.5490    0.4120 O   0  0  0  0  0  0  0  0  0  0  0  0
    3.9140   -1.8390    0.8520 O   0  0  0  0  0  0  0  0  0  0  0  0
    1.0200    0.6260    0.6420 H   0  0  0  0  0  0  0  0  0  0  0  0
   -7.2660    2.4940    0.3100 H   0  0  0  0  0  0  0  0  0  0  0  0
   -5.8740    2.5800    1.4160 H   0  0  0  0  0  0  0  0  0  0  0  0
   -5.6930    3.0790   -0.2830 H   0  0  0  0  0  0  0  0  0  0  0  0
    2.1690   -3.3800   -0.3960 H   0  0  0  0  0  0  0  0  0  0  0  0
   -0.1610   -3.9590   -0.8140 H   0  0  0  0  0  0  0  0  0  0  0  0
    5.5850    0.0280    0.9900 H   0  0  0  0  0  0  0  0  0  0  0  0
    6.4050    2.2900    0.4800 H   0  0  0  0  0  0  0  0  0  0  0  0
    4.9570    3.8930   -0.6970 H   0  0  0  0  0  0  0  0  0  0  0  0
    2.6810    3.2460   -1.3690 H   0  0  0  0  0  0  0  0  0  0  0  0
    1.8430    0.9870   -0.8750 H   0  0  0  0  0  0  0  0  0  0  0  0
   -4.7470   -1.2050   -0.5070 H   0  0  0  0  0  0  0  0  0  0  0  0
   -1.8630    0.9350    0.4270 H   0  0  0  0  0  0  0  0  0  0  0  0
 13 14  2  0  0  0  0
 14 15  1  0  0  0  0
 12 13  1  0  0  0  0
 15 16  2  0  0  0  0
 11 12  2  0  0  0  0
 11 16  1  0  0  0  0
 10 11  1  0  0  0  0
 10 22  2  0  0  0  0
  2 10  1  0  0  0  0
  2  8  2  0  0  0  0
  8  9  1  0  0  0  0
  1  2  1  0  0  0  0
  6  9  2  0  0  0  0
  1  7  2  0  0  0  0
  6  7  1  0  0  0  0
  6 18  1  0  0  0  0
  7 19  1  0  0  0  0
  5 18  2  0  0  0  0
  5 19  1  0  0  0  0
  5 17  1  0  0  0  0
  4 17  1  0  0  0  0
  4 21  2  0  0  0  0
  4 20  1  0  0  0  0
  3 20  1  0  0  0  0
  1 23  1  0  0  0  0
  3 24  1  0  0  0  0
  3 25  1  0  0  0  0
  3 26  1  0  0  0  0
  8 27  1  0  0  0  0
  9 28  1  0  0  0  0
 12 29  1  0  0  0  0
 13 30  1  0  0  0  0
 14 31  1  0  0  0  0
 15 32  1  0  0  0  0
 16 33  1  0  0  0  0
 17 34  1  0  0  0  0
 19 35  1  0  0  0  0
M  END
> <OPENEYE_ISO_SMILES>
COC(=O)Nc1[nH]c2cc(ccc2n1)C(=O)c3ccccc3

> <OPENEYE_INCHI>
InChI=1S/C16H13N3O3/c1-22-16(21)19-15-17-12-8-7-11(9-13(12)18-15)14(20)10-5-3-2-4-6-10/h2-9H,1H3,(H2,17,18,19,21)

> <OPENEYE_INCHIKEY>
OPXLLQIJSORQAM-UHFFFAOYSA-N

> <FORMULA>
C16H13N3O3

$$$$
