TAR
  -OEChem-02242320043D

 16 15  0     1  0  0  0  0  0999 V2000
    2.5820   -0.7570   -0.3590 O   0  0  0  0  0  0  0  0  0  0  0  0
    2.4100    1.2260    0.6000 O   0  0  0  0  0  0  0  0  0  0  0  0
    1.9000    0.2080   -0.1110 C   0  0  0  0  0  0  0  0  0  0  0  0
    0.4750    0.2700   -0.5990 C   0  0  1  0  0  0  0  0  0  0  0  0
    0.2040   -0.8660   -1.4230 O   0  0  0  0  0  0  0  0  0  0  0  0
   -0.4750    0.2700    0.5990 C   0  0  2  0  0  0  0  0  0  0  0  0
   -0.2040   -0.8660    1.4220 O   0  0  0  0  0  0  0  0  0  0  0  0
   -1.9000    0.2080    0.1110 C   0  0  0  0  0  0  0  0  0  0  0  0
   -2.5820   -0.7580    0.3590 O   0  0  0  0  0  0  0  0  0  0  0  0
   -2.4100    1.2260   -0.6000 O   0  0  0  0  0  0  0  0  0  0  0  0
    3.3280    1.1410    0.8910 H   0  0  0  0  0  0  0  0  0  0  0  0
    0.3290    1.1820   -1.1790 H   0  0  0  0  0  0  0  0  0  0  0  0
    0.3140   -1.7140   -0.9710 H   0  0  0  0  0  0  0  0  0  0  0  0
   -0.3290    1.1820    1.1790 H   0  0  0  0  0  0  0  0  0  0  0  0
   -0.3140   -1.7140    0.9710 H   0  0  0  0  0  0  0  0  0  0  0  0
   -3.3280    1.1410   -0.8910 H   0  0  0  0  0  0  0  0  0  0  0  0
  1  3  2  0  0  0  0
  2  3  1  0  0  0  0
  2 11  1  0  0  0  0
  3  4  1  0  0  0  0
  4  5  1  0  0  0  0
  4  6  1  0  0  0  0
  4 12  1  0  0  0  0
  5 13  1  0  0  0  0
  6  7  1  0  0  0  0
  6  8  1  0  0  0  0
  6 14  1  0  0  0  0
  7 15  1  0  0  0  0
  8  9  2  0  0  0  0
  8 10  1  0  0  0  0
 10 16  1  0  0  0  0
M  END
> <OPENEYE_ISO_SMILES>
[C@H]([C@@H](C(=O)O)O)(C(=O)O)O

> <OPENEYE_INCHI>
InChI=1S/C4H6O6/c5-1(3(7)8)2(6)4(9)10/h1-2,5-6H,(H,7,8)(H,9,10)/t1-,2-/m0/s1

> <OPENEYE_INCHIKEY>
FEWJPZIEWOKRBE-LWMBPPNESA-N

> <FORMULA>
C4H6O6

$$$$
