FWI
  -OEChem-02242320023D

 76 77  0     1  0  0  0  0  0999 V2000
   -5.9160    0.0850    0.8010 C   0  0  2  0  0  0  0  0  0  0  0  0
   -4.6210    0.8950    0.7070 C   0  0  2  0  0  0  0  0  0  0  0  0
   -4.9370    2.3060    0.2070 C   0  0  0  0  0  0  0  0  0  0  0  0
   -3.6760    3.1700    0.2880 C   0  0  1  0  0  0  0  0  0  0  0  0
   -2.7870    2.9290   -0.9160 C   0  0  0  0  0  0  0  0  0  0  0  0
   -3.4270    5.0940   -0.8960 C   0  0  0  0  0  0  0  0  0  0  0  0
   -4.0300    4.6390    0.1820 C   0  0  0  0  0  0  0  0  0  0  0  0
   -2.5690   -0.3300    0.2300 C   0  0  0  0  0  0  0  0  0  0  0  0
   -1.5660   -0.8970   -0.7410 C   0  0  2  0  0  0  0  0  0  0  0  0
   -2.0310   -2.2790   -1.2050 C   0  0  0  0  0  0  0  0  0  0  0  0
   -3.3300   -2.1390   -2.0020 C   0  0  0  0  0  0  0  0  0  0  0  0
   -3.0550   -1.3610   -3.2910 C   0  0  0  0  0  0  0  0  0  0  0  0
   -3.8670   -3.5290   -2.3500 C   0  0  0  0  0  0  0  0  0  0  0  0
    0.8690   -0.9380   -0.8110 C   0  0  0  0  0  0  0  0  0  0  0  0
    3.2430   -0.8580   -1.0430 C   0  0  0  0  0  0  0  0  0  0  0  0
    4.5010   -0.8810   -0.1720 C   0  0  0  0  0  0  0  0  0  0  0  0
    5.0000    0.5080    0.2500 C   0  0  0  0  0  0  0  0  0  0  0  0
    7.5970    0.3270    0.4890 C   0  0  0  0  0  0  0  0  0  0  0  0
    9.9630    0.0340    0.5880 C   0  0  0  0  0  0  0  0  0  0  0  0
    9.9510   -0.1930    2.1010 C   0  0  0  0  0  0  0  0  0  0  0  0
   10.2370    1.5110    0.2970 C   0  0  0  0  0  0  0  0  0  0  0  0
   11.0600   -0.8230   -0.0480 C   0  0  0  0  0  0  0  0  0  0  0  0
    5.8150   -0.9160   -0.9650 C   0  0  0  0  0  0  0  0  0  0  0  0
   -2.7000    4.1160   -1.5480 N   0  0  0  0  0  0  0  0  0  0  0  0
   -3.7020    0.2400   -0.2270 N   0  0  0  0  0  0  0  0  0  0  0  0
   -0.2630   -1.0160   -0.0830 N   0  0  0  0  0  0  0  0  0  0  0  0
    6.3710    0.0300    0.0150 N   0  0  0  0  0  0  0  0  0  0  0  0
   -6.8690    0.8010    1.5890 O   0  0  0  0  0  0  0  0  0  0  0  0
   -2.2620    1.8850   -1.2420 O   0  0  0  0  0  0  0  0  0  0  0  0
    2.0670   -0.9460   -0.1960 O   0  0  0  0  0  0  0  0  0  0  0  0
    8.6750   -0.3380    0.0320 O   0  0  0  0  0  0  0  0  0  0  0  0
    7.7290    1.1940    1.3300 O   0  0  0  0  0  0  0  0  0  0  0  0
    0.8080   -0.8600   -2.0220 O   0  0  0  0  0  0  0  0  0  0  0  0
   -2.3570   -0.3850    1.4230 O   0  0  0  0  0  0  0  0  0  0  0  0
   -6.3180   -0.0740   -0.1990 H   0  0  0  0  0  0  0  0  0  0  0  0
   -4.1570    0.9540    1.6920 H   0  0  0  0  0  0  0  0  0  0  0  0
   -5.2780    2.2570   -0.8270 H   0  0  0  0  0  0  0  0  0  0  0  0
   -5.7180    2.7450    0.8270 H   0  0  0  0  0  0  0  0  0  0  0  0
   -3.1350    2.9710    1.2130 H   0  0  0  0  0  0  0  0  0  0  0  0
   -3.4940    6.1180   -1.2340 H   0  0  0  0  0  0  0  0  0  0  0  0
   -4.6550    5.2030    0.8590 H   0  0  0  0  0  0  0  0  0  0  0  0
   -1.4790   -0.2350   -1.6020 H   0  0  0  0  0  0  0  0  0  0  0  0
   -1.2640   -2.7280   -1.8360 H   0  0  0  0  0  0  0  0  0  0  0  0
   -2.2050   -2.9140   -0.3370 H   0  0  0  0  0  0  0  0  0  0  0  0
   -4.0670   -1.6030   -1.4050 H   0  0  0  0  0  0  0  0  0  0  0  0
   -3.9920   -1.2020   -3.8260 H   0  0  0  0  0  0  0  0  0  0  0  0
   -2.6090   -0.3970   -3.0460 H   0  0  0  0  0  0  0  0  0  0  0  0
   -2.3700   -1.9290   -3.9200 H   0  0  0  0  0  0  0  0  0  0  0  0
   -3.1300   -4.0640   -2.9480 H   0  0  0  0  0  0  0  0  0  0  0  0
   -4.0630   -4.0830   -1.4320 H   0  0  0  0  0  0  0  0  0  0  0  0
   -4.7920   -3.4290   -2.9180 H   0  0  0  0  0  0  0  0  0  0  0  0
    3.2120    0.0700   -1.6120 H   0  0  0  0  0  0  0  0  0  0  0  0
    3.2610   -1.7050   -1.7290 H   0  0  0  0  0  0  0  0  0  0  0  0
    4.4500   -1.6060    0.6400 H   0  0  0  0  0  0  0  0  0  0  0  0
    4.6950    1.3030   -0.4310 H   0  0  0  0  0  0  0  0  0  0  0  0
    4.7950    0.7440    1.2940 H   0  0  0  0  0  0  0  0  0  0  0  0
    9.7560   -1.2450    2.3090 H   0  0  0  0  0  0  0  0  0  0  0  0
   10.9180    0.0860    2.5190 H   0  0  0  0  0  0  0  0  0  0  0  0
    9.1700    0.4170    2.5540 H   0  0  0  0  0  0  0  0  0  0  0  0
   11.2040    1.7910    0.7140 H   0  0  0  0  0  0  0  0  0  0  0  0
   10.2450    1.6730   -0.7810 H   0  0  0  0  0  0  0  0  0  0  0  0
    9.4560    2.1220    0.7500 H   0  0  0  0  0  0  0  0  0  0  0  0
   10.8650   -1.8750    0.1600 H   0  0  0  0  0  0  0  0  0  0  0  0
   11.0680   -0.6600   -1.1250 H   0  0  0  0  0  0  0  0  0  0  0  0
   12.0270   -0.5430    0.3700 H   0  0  0  0  0  0  0  0  0  0  0  0
    6.3030   -1.8900   -0.9530 H   0  0  0  0  0  0  0  0  0  0  0  0
    5.7270   -0.5010   -1.9690 H   0  0  0  0  0  0  0  0  0  0  0  0
   -2.1900    4.2650   -2.3600 H   0  0  0  0  0  0  0  0  0  0  0  0
   -3.9080    0.2160   -1.1740 H   0  0  0  0  0  0  0  0  0  0  0  0
   -0.2140   -1.1520    0.8760 H   0  0  0  0  0  0  0  0  0  0  0  0
   -7.1010    1.6690    1.2340 H   0  0  0  0  0  0  0  0  0  0  0  0
   -5.5710   -1.5180    1.5760 S   0  0  0  0  0  0  0  0  0  0  0  0
   -4.8450   -1.3420    2.7850 O   0  0  0  0  0  0  0  0  0  0  0  0
   -6.7200   -2.3530    1.5270 O   0  0  0  0  0  0  0  0  0  0  0  0
   -4.5790   -2.1890    0.6370 O   0  0  0  0  0  0  0  0  0  0  0  0
   -4.2980   -3.0680    0.9240 H   0  0  0  0  0  0  0  0  0  0  0  0
 11 13  1  0  0  0  0
 19 22  1  0  0  0  0
 19 21  1  0  0  0  0
 19 20  1  0  0  0  0
 19 31  1  0  0  0  0
 11 12  1  0  0  0  0
 10 11  1  0  0  0  0
 18 31  1  0  0  0  0
  9 10  1  0  0  0  0
 18 27  1  0  0  0  0
 18 32  2  0  0  0  0
 17 27  1  0  0  0  0
 16 17  1  0  0  0  0
  9 26  1  0  0  0  0
 14 26  1  0  0  0  0
 23 27  1  0  0  0  0
  8  9  1  0  0  0  0
 15 16  1  0  0  0  0
 15 30  1  0  0  0  0
 16 23  1  0  0  0  0
 14 30  1  0  0  0  0
 14 33  2  0  0  0  0
  8 34  2  0  0  0  0
  8 25  1  0  0  0  0
  2 25  1  0  0  0  0
  1 28  1  0  0  0  0
  1  2  1  0  0  0  0
  2  3  1  0  0  0  0
  3  4  1  0  0  0  0
  4  7  1  0  0  0  0
  4  5  1  0  0  0  0
  6  7  2  0  0  0  0
  5 29  2  0  0  0  0
  5 24  1  0  0  0  0
  6 24  1  0  0  0  0
  1 35  1  0  0  0  0
  2 36  1  0  0  0  0
  3 37  1  0  0  0  0
  3 38  1  0  0  0  0
  4 39  1  0  0  0  0
  6 40  1  0  0  0  0
  7 41  1  0  0  0  0
  9 42  1  0  0  0  0
 10 43  1  0  0  0  0
 10 44  1  0  0  0  0
 11 45  1  0  0  0  0
 12 46  1  0  0  0  0
 12 47  1  0  0  0  0
 12 48  1  0  0  0  0
 13 49  1  0  0  0  0
 13 50  1  0  0  0  0
 13 51  1  0  0  0  0
 15 52  1  0  0  0  0
 15 53  1  0  0  0  0
 16 54  1  0  0  0  0
 17 55  1  0  0  0  0
 17 56  1  0  0  0  0
 20 57  1  0  0  0  0
 20 58  1  0  0  0  0
 20 59  1  0  0  0  0
 21 60  1  0  0  0  0
 21 61  1  0  0  0  0
 21 62  1  0  0  0  0
 22 63  1  0  0  0  0
 22 64  1  0  0  0  0
 22 65  1  0  0  0  0
 23 66  1  0  0  0  0
 23 67  1  0  0  0  0
 24 68  1  0  0  0  0
 25 69  1  0  0  0  0
 26 70  1  0  0  0  0
 28 71  1  0  0  0  0
  1 72  1  0  0  0  0
 72 73  2  0  0  0  0
 72 74  2  0  0  0  0
 72 75  1  0  0  0  0
 75 76  1  0  0  0  0
M  END
> <OPENEYE_ISO_SMILES>
CC(C)C[C@@H](C(=O)N[C@@H](C[C@@H]1C=CNC1=O)[C@H](O)S(=O)(=O)O)NC(=O)OCC2CN(C2)C(=O)OC(C)(C)C

> <OPENEYE_INCHI>
InChI=1S/C23H38N4O10S/c1-13(2)8-16(26-21(31)36-12-14-10-27(11-14)22(32)37-23(3,4)5)19(29)25-17(20(30)38(33,34)35)9-15-6-7-24-18(15)28/h6-7,13-17,20,30H,8-12H2,1-5H3,(H,24,28)(H,25,29)(H,26,31)(H,33,34,35)/t15-,16-,17-,20+/m0/s1

> <OPENEYE_INCHIKEY>
WDYXMIZDWOFVQK-OGNFBWPZSA-N

> <FORMULA>
C23H38N4O10S

$$$$
