@<TRIPOS>MOLECULE
/home/pku/3cl/gett_pdb/5SQ1/5SQ1_mol2/ligand/5SQ1_QJO.pdb
 29 30 0 0 0
SMALL
GASTEIGER

@<TRIPOS>ATOM
      1  C14      -44.2630  -32.0580    3.1990 C.2   201  QJO201      0.0607
      2  C13      -44.4310  -31.2180    1.8540 C.3   201  QJO201      0.0767
      3  C12      -43.5550  -31.8280    0.8050 C.3   201  QJO201      0.0345
      4  C10      -42.2030  -31.0840    0.9410 C.3   201  QJO201      0.2648
      5  C19      -45.6610  -28.8480    4.4620 C.ar  201  QJO201      0.0590
      6  C02      -47.7020  -28.9450    5.5030 C.ar  201  QJO201      0.2126
      7  C04      -47.5790  -28.7810    3.2030 C.ar  201  QJO201      0.0590
      8  C05      -46.1790  -28.7580    3.1640 C.ar  201  QJO201      0.1416
      9  C09      -42.7420  -29.6640    1.2800 C.3   201  QJO201      0.0846
     10  F11      -41.4030  -31.5760    1.8690 F     201  QJO201     -0.2041
     11  F17      -41.4510  -31.0750   -0.1620 F     201  QJO201     -0.2041
     12  N01      -48.4460  -29.0430    6.6340 N.pl3 201  QJO201     -0.3275
     13  N03      -48.3500  -28.8640    4.2800 N.ar  201  QJO201     -0.2211
     14  N08      -44.0500  -29.7480    1.9030 N.3   201  QJO201     -0.1621
     15  N20      -46.3280  -28.9460    5.6120 N.ar  201  QJO201     -0.2211
     16  O07      -44.6290  -27.3140    1.7740 O.2   201  QJO201     -0.1527
     17  O15      -44.7790  -33.1570    3.2860 O.co2 201  QJO201     -0.5481
     18  O16      -43.5600  -31.4590    4.0960 O.co2 201  QJO201     -0.5481
     19  O18      -46.0520  -28.8580    0.6420 O.2   201  QJO201     -0.1527
     20  S06      -45.1710  -28.6250    1.7410 S.O2  201  QJO201      0.0645
     21 H131      -45.4850  -31.3330    1.4830 H     201  QJO201      0.0543
     22 H122      -43.9920  -31.6700   -0.1740 H     201  QJO201      0.0342
     23 H121      -43.3940  -32.8930    0.9720 H     201  QJO201      0.0342
     24 H191      -44.5780  -28.8510    4.6170 H     201  QJO201      0.0851
     25 H041      -48.1540  -28.7150    2.2840 H     201  QJO201      0.0851
     26 H092      -41.9340  -29.1920    1.9060 H     201  QJO201      0.0503
     27 H091      -42.6600  -29.1220    0.3100 H     201  QJO201      0.0503
     28 H012      -48.7390  -29.9230    7.0200 H     201  QJO201      0.1452
     29 H011      -48.7420  -28.2660    7.1620 H     201  QJO201      0.1452
@<TRIPOS>UNITY_ATOM_ATTR
18 1
charge -1
@<TRIPOS>BOND
     1    22     3    1
     2    11     4    1
     3    27     9    1
     4    19    20    2
     5     3     4    1
     6     3    23    1
     7     3     2    1
     8     4     9    1
     9     4    10    1
    10     9    14    1
    11     9    26    1
    12    21     2    1
    13    20    16    2
    14    20    14    1
    15    20     8    1
    16     2    14    1
    17     2     1    1
    18    25     7    1
    19     8     7   ar
    20     8     5   ar
    21     1    17   ar
    22     1    18   ar
    23     7    13   ar
    24    13     6   ar
    25     5    24    1
    26     5    15   ar
    27     6    15   ar
    28     6    12    1
    29    12    28    1
    30    12    29    1
