02J
  -OEChem-02242320003D

 14 14  0     0  0  0  0  0  0999 V2000
   -0.7070    0.9040    0.0020 C   0  0  0  0  0  0  0  0  0  0  0  0
   -1.8330    0.1530    0.0000 C   0  0  0  0  0  0  0  0  0  0  0  0
   -3.2530    0.6600   -0.0040 C   0  0  0  0  0  0  0  0  0  0  0  0
   -1.4420   -1.1280    0.0020 O   0  0  0  0  0  0  0  0  0  0  0  0
   -0.2370   -1.2310    0.0040 N   0  0  0  0  0  0  0  0  0  0  0  0
    0.3430   -0.0560   -0.0010 C   0  0  0  0  0  0  0  0  0  0  0  0
    1.8000    0.2180   -0.0010 C   0  0  0  0  0  0  0  0  0  0  0  0
    2.2030    1.3630    0.0030 O   0  0  0  0  0  0  0  0  0  0  0  0
   -0.6250    1.9800    0.0020 H   0  0  0  0  0  0  0  0  0  0  0  0
   -3.5920    0.7820   -1.0320 H   0  0  0  0  0  0  0  0  0  0  0  0
   -3.8950   -0.0550    0.5090 H   0  0  0  0  0  0  0  0  0  0  0  0
   -3.2960    1.6210    0.5090 H   0  0  0  0  0  0  0  0  0  0  0  0
    2.6770   -0.8040   -0.0040 O   0  0  0  0  0  0  0  0  0  0  0  0
    3.6170   -0.5760   -0.0040 H   0  0  0  0  0  0  0  0  0  0  0  0
  1  6  1  0  0  0  0
  1  2  2  0  0  0  0
  1  9  1  0  0  0  0
  2  4  1  0  0  0  0
  2  3  1  0  0  0  0
  3 10  1  0  0  0  0
  3 11  1  0  0  0  0
  3 12  1  0  0  0  0
  4  5  1  0  0  0  0
  5  6  2  0  0  0  0
  6  7  1  0  0  0  0
  7  8  2  0  0  0  0
  7 13  1  0  0  0  0
 13 14  1  0  0  0  0
M  END
> <OPENEYE_ISO_SMILES>
Cc1cc(no1)C(=O)O

> <OPENEYE_INCHI>
InChI=1S/C5H5NO3/c1-3-2-4(5(7)8)6-9-3/h2H,1H3,(H,7,8)

> <OPENEYE_INCHIKEY>
BNMPIJWVMVNSRD-UHFFFAOYSA-N

> <FORMULA>
C5H5NO3

$$$$
