@<TRIPOS>MOLECULE
/home/pku/3cl/gett_pdb/7L12/7L12_mol2/ligand/7L12_XF4.pdb
 36 40 0 0 0
SMALL
GASTEIGER

@<TRIPOS>ATOM
      1  C1       -13.8670  -26.9030    1.0120 C.ar  401  XF4401      0.2647
      2  C2       -14.1820  -28.8740   -0.2720 C.ar  401  XF4401      0.0028
      3  C3       -14.6930  -27.6470    0.1620 C.ar  401  XF4401      0.0564
      4  C4       -16.0700  -27.1650   -0.2990 C.ar  401  XF4401      0.0084
      5  C5       -17.1140  -28.0960   -0.4290 C.ar  401  XF4401      0.0117
      6  C6       -11.7920  -26.5700    2.3400 C.ar  401  XF4401      0.0860
      7  C7       -18.3820  -27.6820   -0.8620 C.ar  401  XF4401      0.0607
      8  C8       -18.6030  -26.3320   -1.1560 C.ar  401  XF4401      0.0483
      9  C9       -17.5670  -25.4000   -1.0220 C.ar  401  XF4401      0.1399
     10  C10      -16.9080  -23.0730   -0.9050 C.3   401  XF4401      0.2320
     11  C11      -17.6150  -21.7860   -1.3040 C.ar  401  XF4401      0.0212
     12  C12      -16.3040  -25.8190   -0.5910 C.ar  401  XF4401      0.0371
     13  C13      -12.1630  -26.5480    3.6900 C.ar  401  XF4401      0.1164
     14  C14      -10.2460  -25.1740    4.1720 C.ar  401  XF4401      0.0990
     15  C15       -9.8790  -25.1990    2.8210 C.ar  401  XF4401      0.0222
     16  C16      -10.6510  -25.9070    1.8930 C.ar  401  XF4401      0.0208
     17  C17      -12.1060  -28.5540    1.0170 C.ar  401  XF4401      0.0795
     18  C18      -12.9180  -29.3160    0.1680 C.ar  401  XF4401      0.0094
     19  C24      -12.3910  -30.6590   -0.3420 C.3   401  XF4401      0.1410
     20  C25      -12.7140  -30.9830   -1.6650 C.2   401  XF4401      0.0772
     21  C26      -11.6000  -31.5530    0.4120 C.2   401  XF4401      0.2584
     22  C30      -11.5070  -33.0440   -1.4790 C.2   401  XF4401      0.3499
     23  C32      -18.7910  -21.4080   -0.6420 C.ar  401  XF4401     -0.0007
     24  C33      -19.4670  -20.2370   -1.0110 C.ar  401  XF4401     -0.0002
     25  C34      -18.9850  -19.4510   -2.0600 C.ar  401  XF4401     -0.0000
     26  C35      -17.8210  -19.8310   -2.7370 C.ar  401  XF4401     -0.0002
     27  C36      -17.1430  -20.9930   -2.3490 C.ar  401  XF4401     -0.0007
     28  N19      -12.6210  -27.3290    1.4300 N.ar  401  XF4401     -0.2719
     29  N20      -11.3850  -25.8450    4.6190 N.ar  401  XF4401     -0.2408
     30  N28      -11.1770  -32.7350   -0.1690 N.am  401  XF4401     -0.1254
     31  N29      -12.2780  -32.1710   -2.2360 N.am  401  XF4401     -0.1632
     32  O21      -14.3430  -25.6840    1.4440 O.2   401  XF4401     -0.2666
     33  O22      -17.8230  -24.0560   -1.3170 O.3   401  XF4401     -0.4706
     34  O27      -11.2340  -31.3350    1.6410 O.2   401  XF4401     -0.2721
     35  O31      -11.0850  -34.1570   -1.9990 O.2   401  XF4401     -0.2484
     36 CL23      -19.7110  -28.8620   -1.0680 Cl    401  XF4401     -0.0821
@<TRIPOS>BOND
     1    26    27   ar
     2    26    25   ar
     3    27    11   ar
     4    31    20    2
     5    31    22    1
     6    25    24   ar
     7    35    22    2
     8    20    19    1
     9    22    30   am
    10    33     9    1
    11    33    10    1
    12    11    10    1
    13    11    23   ar
    14     8     9   ar
    15     8     7   ar
    16    36     7    1
    17     9    12   ar
    18    24    23   ar
    19     7     5   ar
    20    12     4   ar
    21     5     4   ar
    22    19    18    1
    23    19    21    1
    24     4     3    1
    25     2     3   ar
    26     2    18   ar
    27    30    21   am
    28     3     1   ar
    29    18    17   ar
    30    21    34    2
    31     1    28   ar
    32     1    32    2
    33    17    28   ar
    34    28     6    1
    35    16     6   ar
    36    16    15   ar
    37     6    13   ar
    38    15    14   ar
    39    13    29   ar
    40    14    29   ar
