K2G
  -OEChem-02242320033D

 23 23  0     0  0  0  0  0  0999 V2000
    0.6010   -0.8870    0.0000 N   0  0  0  0  0  0  0  0  0  0  0  0
    0.1660    1.7750   -0.0000 C   0  0  0  0  0  0  0  0  0  0  0  0
   -0.9180    0.9050   -0.0000 C   0  0  0  0  0  0  0  0  0  0  0  0
   -0.6620   -0.4680    0.0000 C   0  0  0  0  0  0  0  0  0  0  0  0
   -1.7800   -1.4440    0.0000 C   0  0  0  0  0  0  0  0  0  0  0  0
    1.3900    1.2780    0.0000 N   0  0  0  0  0  0  0  0  0  0  0  0
    3.7370   -0.0400   -1.2490 C   0  0  0  0  0  0  0  0  0  0  0  0
   -2.9300   -1.0500    0.0000 O   0  0  0  0  0  0  0  0  0  0  0  0
    3.0110   -0.5430   -0.0000 C   0  0  0  0  0  0  0  0  0  0  0  0
    3.7370   -0.0400    1.2490 C   0  0  0  0  0  0  0  0  0  0  0  0
    1.5950   -0.0250   -0.0000 C   0  0  0  0  0  0  0  0  0  0  0  0
   -1.5210   -2.7660   -0.0000 N   0  0  0  0  0  0  0  0  0  0  0  0
   -2.5460    1.5080    0.0000 Cl  0  0  0  0  0  0  0  0  0  0  0  0
    0.0090    2.8430   -0.0010 H   0  0  0  0  0  0  0  0  0  0  0  0
    4.7610   -0.4140   -1.2490 H   0  0  0  0  0  0  0  0  0  0  0  0
    3.2200   -0.3980   -2.1390 H   0  0  0  0  0  0  0  0  0  0  0  0
    3.7490    1.0500   -1.2490 H   0  0  0  0  0  0  0  0  0  0  0  0
    3.0000   -1.6320   -0.0000 H   0  0  0  0  0  0  0  0  0  0  0  0
    3.7490    1.0500    1.2500 H   0  0  0  0  0  0  0  0  0  0  0  0
    3.2200   -0.3980    2.1390 H   0  0  0  0  0  0  0  0  0  0  0  0
    4.7610   -0.4140    1.2490 H   0  0  0  0  0  0  0  0  0  0  0  0
   -0.6030   -3.0800   -0.0000 H   0  0  0  0  0  0  0  0  0  0  0  0
   -2.2520   -3.4040   -0.0000 H   0  0  0  0  0  0  0  0  0  0  0  0
  7  9  1  0  0  0  0
  9 10  1  0  0  0  0
  9 11  1  0  0  0  0
  6 11  2  0  0  0  0
  2  6  1  0  0  0  0
  1 11  1  0  0  0  0
  2  3  2  0  0  0  0
  1  4  2  0  0  0  0
  3  4  1  0  0  0  0
  3 13  1  0  0  0  0
  4  5  1  0  0  0  0
  5 12  1  0  0  0  0
  5  8  2  0  0  0  0
  2 14  1  0  0  0  0
  7 15  1  0  0  0  0
  7 16  1  0  0  0  0
  7 17  1  0  0  0  0
  9 18  1  0  0  0  0
 10 19  1  0  0  0  0
 10 20  1  0  0  0  0
 10 21  1  0  0  0  0
 12 22  1  0  0  0  0
 12 23  1  0  0  0  0
M  END
> <OPENEYE_ISO_SMILES>
CC(C)c1ncc(c(n1)C(=O)N)Cl

> <OPENEYE_INCHI>
InChI=1S/C8H10ClN3O/c1-4(2)8-11-3-5(9)6(12-8)7(10)13/h3-4H,1-2H3,(H2,10,13)

> <OPENEYE_INCHIKEY>
PCWKLVQVDIXCTG-UHFFFAOYSA-N

> <FORMULA>
C8H10ClN3O

$$$$
