RXX
  -OEChem-02242320043D

 36 39  0     0  0  0  0  0  0999 V2000
    2.4980    1.7480    1.0820 C   0  0  0  0  0  0  0  0  0  0  0  0
    3.7040    1.0720   -0.7720 C   0  0  0  0  0  0  0  0  0  0  0  0
    3.1310   -0.2060   -0.6520 C   0  0  0  0  0  0  0  0  0  0  0  0
    2.4790   -2.2700   -0.8000 C   0  0  0  0  0  0  0  0  0  0  0  0
    0.8720   -2.4410    1.1400 C   0  0  0  0  0  0  0  0  0  0  0  0
   -3.2270    4.0260   -0.2760 C   0  0  0  0  0  0  0  0  0  0  0  0
   -3.3940    2.5290   -0.3350 C   0  0  0  0  0  0  0  0  0  0  0  0
   -4.5090    1.8780   -0.7230 C   0  0  0  0  0  0  0  0  0  0  0  0
   -4.2370    0.5000   -0.6290 C   0  0  0  0  0  0  0  0  0  0  0  0
   -2.9540    0.3830   -0.1830 C   0  0  0  0  0  0  0  0  0  0  0  0
   -2.2380   -0.8770    0.0650 C   0  0  0  0  0  0  0  0  0  0  0  0
   -0.5330   -2.1910    0.6570 C   0  0  0  0  0  0  0  0  0  0  0  0
    2.2140   -0.4300    0.3880 C   0  0  0  0  0  0  0  0  0  0  0  0
   -1.3720   -3.1910    0.3670 C   0  0  0  0  0  0  0  0  0  0  0  0
   -1.0090   -0.9780    0.4920 N   0  0  0  0  0  0  0  0  0  0  0  0
    1.8200   -1.7390    0.2700 N   0  0  0  0  0  0  0  0  0  0  0  0
    3.2410   -1.3670   -1.3450 N   0  0  0  0  0  0  0  0  0  0  0  0
    4.6040    1.3510   -1.7850 N   0  0  0  0  0  0  0  0  0  0  0  0
    3.3620    2.0060    0.1080 N   0  0  0  0  0  0  0  0  0  0  0  0
    2.1740    2.7570    1.9740 N   0  0  0  0  0  0  0  0  0  0  0  0
    1.9320    0.5610    1.2270 N   0  0  0  0  0  0  0  0  0  0  0  0
   -2.4550    1.6240   -0.0150 O   0  0  0  0  0  0  0  0  0  0  0  0
   -2.9030   -2.4930   -0.1590 S   0  0  0  0  0  0  0  0  0  0  0  0
    2.3830   -3.2890   -1.1440 H   0  0  0  0  0  0  0  0  0  0  0  0
    0.9760   -2.0730    2.1610 H   0  0  0  0  0  0  0  0  0  0  0  0
    1.0810   -3.5100    1.1150 H   0  0  0  0  0  0  0  0  0  0  0  0
   -2.2210    4.2660    0.0680 H   0  0  0  0  0  0  0  0  0  0  0  0
   -3.3810    4.4480   -1.2690 H   0  0  0  0  0  0  0  0  0  0  0  0
   -3.9570    4.4460    0.4150 H   0  0  0  0  0  0  0  0  0  0  0  0
   -5.4360    2.3290   -1.0440 H   0  0  0  0  0  0  0  0  0  0  0  0
   -4.9130   -0.3080   -0.8640 H   0  0  0  0  0  0  0  0  0  0  0  0
   -1.1500   -4.2450    0.4420 H   0  0  0  0  0  0  0  0  0  0  0  0
    4.9930    2.2360   -1.8580 H   0  0  0  0  0  0  0  0  0  0  0  0
    4.8470    0.6600   -2.4210 H   0  0  0  0  0  0  0  0  0  0  0  0
    2.5770    3.6350    1.8800 H   0  0  0  0  0  0  0  0  0  0  0  0
    1.5450    2.5870    2.6920 H   0  0  0  0  0  0  0  0  0  0  0  0
  6  7  1  0  0  0  0
  7 22  1  0  0  0  0
  7  8  2  0  0  0  0
 10 22  1  0  0  0  0
 11 23  1  0  0  0  0
 14 23  1  0  0  0  0
  8  9  1  0  0  0  0
 10 11  1  0  0  0  0
  9 10  2  0  0  0  0
 11 15  2  0  0  0  0
 12 14  2  0  0  0  0
 12 15  1  0  0  0  0
  5 12  1  0  0  0  0
  5 16  1  0  0  0  0
  4 16  1  0  0  0  0
  4 17  2  0  0  0  0
 13 16  1  0  0  0  0
  3 17  1  0  0  0  0
  3 13  2  0  0  0  0
 13 21  1  0  0  0  0
  2  3  1  0  0  0  0
  1 21  2  0  0  0  0
  2 18  1  0  0  0  0
  2 19  2  0  0  0  0
  1 19  1  0  0  0  0
  1 20  1  0  0  0  0
  4 24  1  0  0  0  0
  5 25  1  0  0  0  0
  5 26  1  0  0  0  0
  6 27  1  0  0  0  0
  6 28  1  0  0  0  0
  6 29  1  0  0  0  0
  8 30  1  0  0  0  0
  9 31  1  0  0  0  0
 14 32  1  0  0  0  0
 18 33  1  0  0  0  0
 18 34  1  0  0  0  0
 20 35  1  0  0  0  0
 20 36  1  0  0  0  0
M  END
> <OPENEYE_ISO_SMILES>
Cc1ccc(o1)c2nc(cs2)Cn3cnc4c3nc(nc4N)N

> <OPENEYE_INCHI>
InChI=1S/C14H13N7OS/c1-7-2-3-9(22-7)13-18-8(5-23-13)4-21-6-17-10-11(15)19-14(16)20-12(10)21/h2-3,5-6H,4H2,1H3,(H4,15,16,19,20)

> <OPENEYE_INCHIKEY>
RYLGZXYODNRSDR-UHFFFAOYSA-N

> <FORMULA>
C14H13N7OS

$$$$
