5ZJ
  -OEChem-02242320013D

 41 43  0     0  0  0  0  0  0999 V2000
   -6.2230    1.0160   -0.7150 C   0  0  0  0  0  0  0  0  0  0  0  0
   -5.3190   -0.1300   -0.8600 C   0  0  0  0  0  0  0  0  0  0  0  0
    5.7710    0.1150    0.6310 C   0  0  0  0  0  0  0  0  0  0  0  0
    4.3400   -0.1720    0.2520 C   0  0  0  0  0  0  0  0  0  0  0  0
    3.7170   -1.3120    0.7250 C   0  0  0  0  0  0  0  0  0  0  0  0
    3.6510    0.7090   -0.5630 C   0  0  0  0  0  0  0  0  0  0  0  0
    2.3400    0.4480   -0.9120 C   0  0  0  0  0  0  0  0  0  0  0  0
   -5.3450    1.3910    1.4190 C   0  0  0  0  0  0  0  0  0  0  0  0
   -4.4830   -0.4290    0.1690 C   0  0  0  0  0  0  0  0  0  0  0  0
    1.7140   -0.7000   -0.4420 C   0  0  0  0  0  0  0  0  0  0  0  0
    2.4070   -1.5780    0.3800 C   0  0  0  0  0  0  0  0  0  0  0  0
   -3.5520   -1.5780    0.0670 C   0  0  0  0  0  0  0  0  0  0  0  0
   -1.4600   -2.5730   -0.7400 C   0  0  0  0  0  0  0  0  0  0  0  0
   -0.0720   -2.2240   -0.1900 C   0  0  0  0  0  0  0  0  0  0  0  0
   -0.4890    0.1530   -0.4250 C   0  0  0  0  0  0  0  0  0  0  0  0
   -1.9020   -0.0990   -0.9850 C   0  0  0  0  0  0  0  0  0  0  0  0
    5.8370    1.3370    1.3110 F   0  0  0  0  0  0  0  0  0  0  0  0
    6.2480   -0.9060    1.4600 F   0  0  0  0  0  0  0  0  0  0  0  0
    6.5550    0.1820   -0.5250 F   0  0  0  0  0  0  0  0  0  0  0  0
   -4.5090    0.3460    1.3080 N   0  0  0  0  0  0  0  0  0  0  0  0
   -6.1920    1.7290    0.4310 N   0  0  0  0  0  0  0  0  0  0  0  0
   -2.3520   -1.4230   -0.5290 N   0  0  0  0  0  0  0  0  0  0  0  0
    0.3880   -0.9660   -0.7930 N   0  0  0  0  0  0  0  0  0  0  0  0
   -5.3370    2.0500    2.4420 O   0  0  0  0  0  0  0  0  0  0  0  0
   -6.9850    1.3220   -1.6130 O   0  0  0  0  0  0  0  0  0  0  0  0
   -3.8690   -2.6600    0.5190 O   0  0  0  0  0  0  0  0  0  0  0  0
    4.4360    2.1430   -1.1490 Cl  0  0  0  0  0  0  0  0  0  0  0  0
   -5.3180   -0.7230   -1.7630 H   0  0  0  0  0  0  0  0  0  0  0  0
    4.2560   -1.9950    1.3650 H   0  0  0  0  0  0  0  0  0  0  0  0
    1.8020    1.1360   -1.5480 H   0  0  0  0  0  0  0  0  0  0  0  0
    1.9220   -2.4710    0.7470 H   0  0  0  0  0  0  0  0  0  0  0  0
   -1.3870   -2.7890   -1.8060 H   0  0  0  0  0  0  0  0  0  0  0  0
   -1.8540   -3.4430   -0.2160 H   0  0  0  0  0  0  0  0  0  0  0  0
   -0.1280   -2.1100    0.8920 H   0  0  0  0  0  0  0  0  0  0  0  0
    0.6270   -3.0230   -0.4360 H   0  0  0  0  0  0  0  0  0  0  0  0
   -0.0930    1.0800   -0.8410 H   0  0  0  0  0  0  0  0  0  0  0  0
   -0.5370    0.2330    0.6610 H   0  0  0  0  0  0  0  0  0  0  0  0
   -2.5840    0.6680   -0.6170 H   0  0  0  0  0  0  0  0  0  0  0  0
   -1.8740   -0.0720   -2.0740 H   0  0  0  0  0  0  0  0  0  0  0  0
   -3.9120    0.1330    2.0420 H   0  0  0  0  0  0  0  0  0  0  0  0
   -6.7840    2.4890    0.5420 H   0  0  0  0  0  0  0  0  0  0  0  0
  1 25  2  0  0  0  0
  1  2  1  0  0  0  0
  1 21  1  0  0  0  0
  2  9  2  0  0  0  0
  8 21  1  0  0  0  0
  9 20  1  0  0  0  0
  9 12  1  0  0  0  0
  8 20  1  0  0  0  0
  8 24  2  0  0  0  0
  6 27  1  0  0  0  0
 12 26  2  0  0  0  0
 12 22  1  0  0  0  0
 13 14  1  0  0  0  0
 14 23  1  0  0  0  0
  3 17  1  0  0  0  0
  6  7  2  0  0  0  0
  7 10  1  0  0  0  0
  4  6  1  0  0  0  0
 13 22  1  0  0  0  0
 16 22  1  0  0  0  0
 15 23  1  0  0  0  0
 10 23  1  0  0  0  0
 15 16  1  0  0  0  0
 10 11  2  0  0  0  0
  3  4  1  0  0  0  0
  4  5  2  0  0  0  0
  3 18  1  0  0  0  0
  3 19  1  0  0  0  0
  5 11  1  0  0  0  0
  2 28  1  0  0  0  0
  5 29  1  0  0  0  0
  7 30  1  0  0  0  0
 11 31  1  0  0  0  0
 13 32  1  0  0  0  0
 13 33  1  0  0  0  0
 14 34  1  0  0  0  0
 14 35  1  0  0  0  0
 15 36  1  0  0  0  0
 15 37  1  0  0  0  0
 16 38  1  0  0  0  0
 16 39  1  0  0  0  0
 20 40  1  0  0  0  0
 21 41  1  0  0  0  0
M  END
> <OPENEYE_ISO_SMILES>
c1cc(c(cc1N2CCN(CC2)C(=O)c3cc(=O)[nH]c(=O)[nH]3)Cl)C(F)(F)F

> <OPENEYE_INCHI>
InChI=1S/C16H14ClF3N4O3/c17-11-7-9(1-2-10(11)16(18,19)20)23-3-5-24(6-4-23)14(26)12-8-13(25)22-15(27)21-12/h1-2,7-8H,3-6H2,(H2,21,22,25,27)

> <OPENEYE_INCHIKEY>
RILFZGUYWVKTMS-UHFFFAOYSA-N

> <FORMULA>
C16H14ClF3N4O3

$$$$
