54T
  -OEChem-02242320013D

 16 17  0     0  0  0  0  0  0999 V2000
    1.9590   -1.1490   -0.0000 N   0  0  0  0  0  0  0  0  0  0  0  0
   -1.0140    0.8590    0.0010 C   0  0  0  0  0  0  0  0  0  0  0  0
   -2.0310   -0.0720    0.0010 C   0  0  0  0  0  0  0  0  0  0  0  0
    2.7480   -0.1290   -0.0000 C   0  0  0  0  0  0  0  0  0  0  0  0
   -3.6870    0.4510   -0.0000 Cl  0  0  0  0  0  0  0  0  0  0  0  0
   -1.7310   -1.4270    0.0000 C   0  0  0  0  0  0  0  0  0  0  0  0
    0.3150    0.4430   -0.0000 C   0  0  0  0  0  0  0  0  0  0  0  0
    1.8180    1.3630   -0.0000 S   0  0  0  0  0  0  0  0  0  0  0  0
    4.1260   -0.1990    0.0000 N   0  0  0  0  0  0  0  0  0  0  0  0
    0.6310   -0.9190   -0.0000 C   0  0  0  0  0  0  0  0  0  0  0  0
   -0.4270   -1.8530   -0.0000 C   0  0  0  0  0  0  0  0  0  0  0  0
   -1.2490    1.9130    0.0000 H   0  0  0  0  0  0  0  0  0  0  0  0
   -2.5310   -2.1520    0.0010 H   0  0  0  0  0  0  0  0  0  0  0  0
    4.5680   -1.0620    0.0010 H   0  0  0  0  0  0  0  0  0  0  0  0
    4.6530    0.6160    0.0000 H   0  0  0  0  0  0  0  0  0  0  0  0
   -0.2080   -2.9100   -0.0000 H   0  0  0  0  0  0  0  0  0  0  0  0
  4  9  1  0  0  0  0
  4  8  1  0  0  0  0
  7  8  1  0  0  0  0
  1  4  2  0  0  0  0
  1 10  1  0  0  0  0
  7 10  2  0  0  0  0
  2  7  1  0  0  0  0
 10 11  1  0  0  0  0
  2  3  2  0  0  0  0
  6 11  2  0  0  0  0
  3  6  1  0  0  0  0
  3  5  1  0  0  0  0
  2 12  1  0  0  0  0
  6 13  1  0  0  0  0
  9 14  1  0  0  0  0
  9 15  1  0  0  0  0
 11 16  1  0  0  0  0
M  END
> <OPENEYE_ISO_SMILES>
c1cc2c(cc1Cl)sc(n2)N

> <OPENEYE_INCHI>
InChI=1S/C7H5ClN2S/c8-4-1-2-5-6(3-4)11-7(9)10-5/h1-3H,(H2,9,10)

> <OPENEYE_INCHIKEY>
VMNXKIDUTPOHPO-UHFFFAOYSA-N

> <FORMULA>
C7H5ClN2S

$$$$
