LNS
  -OEChem-02242320033D

 21 21  0     0  0  0  0  0  0999 V2000
   -2.4090    1.2250    0.0020 N   0  0  0  0  0  0  0  0  0  0  0  0
   -0.5400   -1.9820    0.0020 C   0  0  0  0  0  0  0  0  0  0  0  0
    0.7660   -2.4440   -0.0000 C   0  0  0  0  0  0  0  0  0  0  0  0
    1.7960   -1.5170   -0.0010 C   0  0  0  0  0  0  0  0  0  0  0  0
    1.4880   -0.1550    0.0000 C   0  0  0  0  0  0  0  0  0  0  0  0
    2.5820    0.8440   -0.0010 C   0  0  0  0  0  0  0  0  0  0  0  0
   -3.7870    1.7230   -0.0020 C   0  0  0  0  0  0  0  0  0  0  0  0
   -2.1720   -0.1020    0.0000 C   0  0  0  0  0  0  0  0  0  0  0  0
   -3.1010   -0.8850   -0.0040 O   0  0  0  0  0  0  0  0  0  0  0  0
   -0.7780   -0.6050    0.0040 C   0  0  0  0  0  0  0  0  0  0  0  0
    0.2290    0.2540    0.0030 N   0  0  0  0  0  0  0  0  0  0  0  0
    2.2930    2.1590    0.0010 O   0  0  0  0  0  0  0  0  0  0  0  0
    3.7400    0.4770   -0.0030 O   0  0  0  0  0  0  0  0  0  0  0  0
   -1.6670    1.8500    0.0010 H   0  0  0  0  0  0  0  0  0  0  0  0
   -1.3660   -2.6780   -0.0020 H   0  0  0  0  0  0  0  0  0  0  0  0
    0.9760   -3.5030   -0.0010 H   0  0  0  0  0  0  0  0  0  0  0  0
    2.8250   -1.8440   -0.0030 H   0  0  0  0  0  0  0  0  0  0  0  0
   -4.3020    1.3600   -0.8910 H   0  0  0  0  0  0  0  0  0  0  0  0
   -4.3040    1.3660    0.8890 H   0  0  0  0  0  0  0  0  0  0  0  0
   -3.7790    2.8130   -0.0050 H   0  0  0  0  0  0  0  0  0  0  0  0
    3.0410    2.7730    0.0000 H   0  0  0  0  0  0  0  0  0  0  0  0
  6 13  2  0  0  0  0
  6 12  1  0  0  0  0
  5  6  1  0  0  0  0
  4  5  2  0  0  0  0
  3  4  1  0  0  0  0
  5 11  1  0  0  0  0
  2  3  2  0  0  0  0
 10 11  2  0  0  0  0
  2 10  1  0  0  0  0
  8 10  1  0  0  0  0
  1  8  1  0  0  0  0
  8  9  2  0  0  0  0
  1  7  1  0  0  0  0
  1 14  1  0  0  0  0
  2 15  1  0  0  0  0
  3 16  1  0  0  0  0
  4 17  1  0  0  0  0
  7 18  1  0  0  0  0
  7 19  1  0  0  0  0
  7 20  1  0  0  0  0
 12 21  1  0  0  0  0
M  END
> <OPENEYE_ISO_SMILES>
CNC(=O)c1cccc(n1)C(=O)O

> <OPENEYE_INCHI>
InChI=1S/C8H8N2O3/c1-9-7(11)5-3-2-4-6(10-5)8(12)13/h2-4H,1H3,(H,9,11)(H,12,13)

> <OPENEYE_INCHIKEY>
NPBRDFPBRHOBAK-UHFFFAOYSA-N

> <FORMULA>
C8H8N2O3

$$$$
