QKL
  -OEChem-02242320033D

 49 52  0     1  0  0  0  0  0999 V2000
    8.9230   -0.9860   -0.4680 C   0  0  0  0  0  0  0  0  0  0  0  0
    7.4160   -1.0100   -0.7280 C   0  0  0  0  0  0  0  0  0  0  0  0
    5.3180   -0.0180    0.0150 C   0  0  0  0  0  0  0  0  0  0  0  0
    3.2170    0.9060    0.6240 C   0  0  0  0  0  0  0  0  0  0  0  0
    2.5770    1.6060    1.6420 C   0  0  0  0  0  0  0  0  0  0  0  0
    1.2160    1.4890    1.8110 C   0  0  0  0  0  0  0  0  0  0  0  0
    0.4760    0.6650    0.9590 C   0  0  0  0  0  0  0  0  0  0  0  0
    8.3880   -0.7660   -1.8840 C   0  0  0  0  0  0  0  0  0  0  0  0
   -4.8350   -2.2320    0.6830 C   0  0  0  0  0  0  0  0  0  0  0  0
   -3.6370   -1.7320   -0.0820 C   0  0  1  0  0  0  0  0  0  0  0  0
   -4.0270   -1.3540   -1.5270 C   0  0  0  0  0  0  0  0  0  0  0  0
   -4.3740    0.1190   -1.4710 C   0  0  0  0  0  0  0  0  0  0  0  0
   -3.8660    0.6750   -0.3120 C   0  0  0  0  0  0  0  0  0  0  0  0
   -3.1440   -0.3860    0.4910 C   0  0  2  0  0  0  0  0  0  0  0  0
   -0.9830    0.5370    1.1370 C   0  0  0  0  0  0  0  0  0  0  0  0
    2.4830    0.0850   -0.2270 C   0  0  0  0  0  0  0  0  0  0  0  0
    1.1210   -0.0370   -0.0640 C   0  0  0  0  0  0  0  0  0  0  0  0
   -4.0640    2.0200   -0.0490 C   0  0  0  0  0  0  0  0  0  0  0  0
   -4.7680    2.8060   -0.9400 C   0  0  0  0  0  0  0  0  0  0  0  0
   -5.2750    2.2500   -2.1000 C   0  0  0  0  0  0  0  0  0  0  0  0
   -5.0780    0.9090   -2.3640 C   0  0  0  0  0  0  0  0  0  0  0  0
   -1.6950   -0.2580    0.3140 N   0  0  0  0  0  0  0  0  0  0  0  0
    4.5940    1.0320    0.4520 N   0  0  0  0  0  0  0  0  0  0  0  0
    6.6300    0.1320   -0.2530 N   0  0  0  0  0  0  0  0  0  0  0  0
   -5.2740   -1.5890    1.6070 O   0  0  0  0  0  0  0  0  0  0  0  0
    4.7860   -1.1010   -0.1360 O   0  0  0  0  0  0  0  0  0  0  0  0
   -1.5430    1.1480    2.0260 O   0  0  0  0  0  0  0  0  0  0  0  0
   -5.4150   -3.3930    0.3380 O   0  0  0  0  0  0  0  0  0  0  0  0
    9.3300   -0.1210    0.0560 H   0  0  0  0  0  0  0  0  0  0  0  0
    9.4130   -1.9370   -0.2560 H   0  0  0  0  0  0  0  0  0  0  0  0
    6.9130   -1.9760   -0.6870 H   0  0  0  0  0  0  0  0  0  0  0  0
    3.1500    2.2430    2.3010 H   0  0  0  0  0  0  0  0  0  0  0  0
    0.7210    2.0320    2.6020 H   0  0  0  0  0  0  0  0  0  0  0  0
    8.4430    0.2430   -2.2920 H   0  0  0  0  0  0  0  0  0  0  0  0
    8.5250   -1.5720   -2.6050 H   0  0  0  0  0  0  0  0  0  0  0  0
   -2.8370   -2.4720   -0.0740 H   0  0  0  0  0  0  0  0  0  0  0  0
   -3.1870   -1.5190   -2.2010 H   0  0  0  0  0  0  0  0  0  0  0  0
   -4.8910   -1.9350   -1.8500 H   0  0  0  0  0  0  0  0  0  0  0  0
   -3.4050   -0.3050    1.5460 H   0  0  0  0  0  0  0  0  0  0  0  0
    2.9820   -0.4570   -1.0170 H   0  0  0  0  0  0  0  0  0  0  0  0
    0.5530   -0.6740   -0.7240 H   0  0  0  0  0  0  0  0  0  0  0  0
   -3.6680    2.4550    0.8570 H   0  0  0  0  0  0  0  0  0  0  0  0
   -4.9210    3.8550   -0.7320 H   0  0  0  0  0  0  0  0  0  0  0  0
   -5.8260    2.8640   -2.7970 H   0  0  0  0  0  0  0  0  0  0  0  0
   -5.4740    0.4750   -3.2700 H   0  0  0  0  0  0  0  0  0  0  0  0
   -1.2480   -0.7460   -0.3960 H   0  0  0  0  0  0  0  0  0  0  0  0
    5.0320    1.8750    0.6460 H   0  0  0  0  0  0  0  0  0  0  0  0
    7.0540    0.9960   -0.1330 H   0  0  0  0  0  0  0  0  0  0  0  0
   -6.1800   -3.6730    0.8580 H   0  0  0  0  0  0  0  0  0  0  0  0
  9 25  2  0  0  0  0
 10 11  1  0  0  0  0
 11 12  1  0  0  0  0
 12 13  2  0  0  0  0
 14 22  1  0  0  0  0
 15 22  1  0  0  0  0
  6  7  2  0  0  0  0
  5  6  1  0  0  0  0
  4  5  2  0  0  0  0
  3 23  1  0  0  0  0
  2 24  1  0  0  0  0
  1  2  1  0  0  0  0
  1  8  1  0  0  0  0
  3 24  1  0  0  0  0
  3 26  2  0  0  0  0
  4 23  1  0  0  0  0
  4 16  1  0  0  0  0
 16 17  2  0  0  0  0
  7 15  1  0  0  0  0
 15 27  2  0  0  0  0
 13 14  1  0  0  0  0
 13 18  1  0  0  0  0
 18 19  2  0  0  0  0
 19 20  1  0  0  0  0
 20 21  2  0  0  0  0
  9 10  1  0  0  0  0
  9 28  1  0  0  0  0
 10 14  1  0  0  0  0
 12 21  1  0  0  0  0
  7 17  1  0  0  0  0
  2  8  1  0  0  0  0
  1 29  1  0  0  0  0
  1 30  1  0  0  0  0
  2 31  1  0  0  0  0
  5 32  1  0  0  0  0
  6 33  1  0  0  0  0
  8 34  1  0  0  0  0
  8 35  1  0  0  0  0
 10 36  1  0  0  0  0
 11 37  1  0  0  0  0
 11 38  1  0  0  0  0
 14 39  1  0  0  0  0
 16 40  1  0  0  0  0
 17 41  1  0  0  0  0
 18 42  1  0  0  0  0
 19 43  1  0  0  0  0
 20 44  1  0  0  0  0
 21 45  1  0  0  0  0
 22 46  1  0  0  0  0
 23 47  1  0  0  0  0
 24 48  1  0  0  0  0
 28 49  1  0  0  0  0
M  END
> <OPENEYE_ISO_SMILES>
c1ccc2c(c1)C[C@@H]([C@H]2NC(=O)c3ccc(cc3)NC(=O)NC4CC4)C(=O)O

> <OPENEYE_INCHI>
InChI=1S/C21H21N3O4/c25-19(12-5-7-14(8-6-12)22-21(28)23-15-9-10-15)24-18-16-4-2-1-3-13(16)11-17(18)20(26)27/h1-8,15,17-18H,9-11H2,(H,24,25)(H,26,27)(H2,22,23,28)/t17-,18-/m0/s1

> <OPENEYE_INCHIKEY>
PQRRGZUIGKDGBP-ROUUACIJSA-N

> <FORMULA>
C21H21N3O4

$$$$
