QKX
  -OEChem-02242320033D

 49 52  0     1  0  0  0  0  0999 V2000
    3.1020   -2.7140   -0.2880 C   0  0  0  0  0  0  0  0  0  0  0  0
    4.1080   -1.5940   -0.2060 C   0  0  1  0  0  0  0  0  0  0  0  0
    4.3680   -0.9870   -1.6000 C   0  0  0  0  0  0  0  0  0  0  0  0
    4.5800    0.4920   -1.3550 C   0  0  0  0  0  0  0  0  0  0  0  0
    4.1000    0.8320   -0.1050 C   0  0  0  0  0  0  0  0  0  0  0  0
    4.1900    2.1420    0.3360 C   0  0  0  0  0  0  0  0  0  0  0  0
    4.7590    3.1080   -0.4700 C   0  0  0  0  0  0  0  0  0  0  0  0
    5.2400    2.7680   -1.7210 C   0  0  0  0  0  0  0  0  0  0  0  0
    5.1500    1.4630   -2.1620 C   0  0  0  0  0  0  0  0  0  0  0  0
    3.5310   -0.3950    0.5760 C   0  0  1  0  0  0  0  0  0  0  0  0
    1.3400    0.1730    1.4770 C   0  0  0  0  0  0  0  0  0  0  0  0
   -0.1340    0.1780    1.3930 C   0  0  0  0  0  0  0  0  0  0  0  0
   -0.7750   -0.4070    0.2980 C   0  0  0  0  0  0  0  0  0  0  0  0
   -2.1500   -0.4010    0.2240 C   0  0  0  0  0  0  0  0  0  0  0  0
   -2.9010    0.1860    1.2370 C   0  0  0  0  0  0  0  0  0  0  0  0
   -2.2650    0.7700    2.3290 C   0  0  0  0  0  0  0  0  0  0  0  0
   -0.8910    0.7620    2.4130 C   0  0  0  0  0  0  0  0  0  0  0  0
   -4.8990    0.2730   -0.0420 C   0  0  0  0  0  0  0  0  0  0  0  0
   -6.9000    0.2620   -1.4330 C   0  0  0  0  0  0  0  0  0  0  0  0
   -8.0160   -0.7420   -1.7310 C   0  0  0  0  0  0  0  0  0  0  0  0
   -8.3580    0.7240   -1.4570 C   0  0  0  0  0  0  0  0  0  0  0  0
    2.0690   -0.3900    0.4930 N   0  0  0  0  0  0  0  0  0  0  0  0
   -4.2930    0.1910    1.1580 N   0  0  0  0  0  0  0  0  0  0  0  0
   -6.2400    0.1730   -0.1280 N   0  0  0  0  0  0  0  0  0  0  0  0
    2.3760   -2.8040   -1.2490 O   0  0  0  0  0  0  0  0  0  0  0  0
   -4.2370    0.4390   -1.0480 O   0  0  0  0  0  0  0  0  0  0  0  0
    1.8960    0.6780    2.4330 O   0  0  0  0  0  0  0  0  0  0  0  0
    3.0180   -3.6140    0.7040 O   0  0  0  0  0  0  0  0  0  0  0  0
    5.0360   -1.9420    0.2480 H   0  0  0  0  0  0  0  0  0  0  0  0
    5.2590   -1.4280   -2.0460 H   0  0  0  0  0  0  0  0  0  0  0  0
    3.5050   -1.1440   -2.2480 H   0  0  0  0  0  0  0  0  0  0  0  0
    3.8140    2.4080    1.3130 H   0  0  0  0  0  0  0  0  0  0  0  0
    4.8270    4.1290   -0.1230 H   0  0  0  0  0  0  0  0  0  0  0  0
    5.6840    3.5230   -2.3520 H   0  0  0  0  0  0  0  0  0  0  0  0
    5.5250    1.1980   -3.1390 H   0  0  0  0  0  0  0  0  0  0  0  0
    3.8520   -0.4330    1.6170 H   0  0  0  0  0  0  0  0  0  0  0  0
   -0.1930   -0.8620   -0.4890 H   0  0  0  0  0  0  0  0  0  0  0  0
   -2.6460   -0.8530   -0.6230 H   0  0  0  0  0  0  0  0  0  0  0  0
   -2.8510    1.2250    3.1140 H   0  0  0  0  0  0  0  0  0  0  0  0
   -0.3990    1.2110    3.2630 H   0  0  0  0  0  0  0  0  0  0  0  0
   -6.2620    0.5670   -2.2620 H   0  0  0  0  0  0  0  0  0  0  0  0
   -8.1110   -1.0980   -2.7570 H   0  0  0  0  0  0  0  0  0  0  0  0
   -8.2580   -1.4690   -0.9570 H   0  0  0  0  0  0  0  0  0  0  0  0
   -8.8270    0.9610   -0.5020 H   0  0  0  0  0  0  0  0  0  0  0  0
   -8.6800    1.3320   -2.3030 H   0  0  0  0  0  0  0  0  0  0  0  0
    1.6250   -0.7930   -0.2700 H   0  0  0  0  0  0  0  0  0  0  0  0
   -4.8240    0.1350    1.9680 H   0  0  0  0  0  0  0  0  0  0  0  0
   -6.7690    0.0410    0.6750 H   0  0  0  0  0  0  0  0  0  0  0  0
    2.3600   -4.3170    0.6050 H   0  0  0  0  0  0  0  0  0  0  0  0
  1 25  2  0  0  0  0
  2  3  1  0  0  0  0
  3  4  1  0  0  0  0
  4  5  2  0  0  0  0
  6  7  2  0  0  0  0
  7  8  1  0  0  0  0
  8  9  2  0  0  0  0
  5  6  1  0  0  0  0
  5 10  1  0  0  0  0
 10 22  1  0  0  0  0
 11 22  1  0  0  0  0
 12 13  2  0  0  0  0
 13 14  1  0  0  0  0
 14 15  2  0  0  0  0
 16 17  2  0  0  0  0
 15 16  1  0  0  0  0
 15 23  1  0  0  0  0
 18 23  1  0  0  0  0
 19 24  1  0  0  0  0
 19 20  1  0  0  0  0
 20 21  1  0  0  0  0
 18 24  1  0  0  0  0
 18 26  2  0  0  0  0
 11 12  1  0  0  0  0
 11 27  2  0  0  0  0
  1  2  1  0  0  0  0
  1 28  1  0  0  0  0
  2 10  1  0  0  0  0
  4  9  1  0  0  0  0
 12 17  1  0  0  0  0
 19 21  1  0  0  0  0
  2 29  1  0  0  0  0
  3 30  1  0  0  0  0
  3 31  1  0  0  0  0
  6 32  1  0  0  0  0
  7 33  1  0  0  0  0
  8 34  1  0  0  0  0
  9 35  1  0  0  0  0
 10 36  1  0  0  0  0
 13 37  1  0  0  0  0
 14 38  1  0  0  0  0
 16 39  1  0  0  0  0
 17 40  1  0  0  0  0
 19 41  1  0  0  0  0
 20 42  1  0  0  0  0
 20 43  1  0  0  0  0
 21 44  1  0  0  0  0
 21 45  1  0  0  0  0
 22 46  1  0  0  0  0
 23 47  1  0  0  0  0
 24 48  1  0  0  0  0
 28 49  1  0  0  0  0
M  END
> <OPENEYE_ISO_SMILES>
c1ccc2c(c1)C[C@@H]([C@@H]2NC(=O)c3ccc(cc3)NC(=O)NC4CC4)C(=O)O

> <OPENEYE_INCHI>
InChI=1S/C21H21N3O4/c25-19(12-5-7-14(8-6-12)22-21(28)23-15-9-10-15)24-18-16-4-2-1-3-13(16)11-17(18)20(26)27/h1-8,15,17-18H,9-11H2,(H,24,25)(H,26,27)(H2,22,23,28)/t17-,18+/m0/s1

> <OPENEYE_INCHIKEY>
PQRRGZUIGKDGBP-ZWKOTPCHSA-N

> <FORMULA>
C21H21N3O4

$$$$
