1N7
  -OEChem-02242320003D

102105  0     1  0  0  0  0  0999 V2000
    9.2320   -1.4970    0.1420 C   0  0  0  0  0  0  0  0  0  0  0  0
    8.3480   -0.5300    0.9320 C   0  0  1  0  0  0  0  0  0  0  0  0
    6.3530   -1.4950   -0.2270 C   0  0  0  0  0  0  0  0  0  0  0  0
    5.0300   -1.2030   -0.9540 C   0  0  1  0  0  0  0  0  0  0  0  0
    4.2040   -0.3110   -0.0480 C   0  0  1  0  0  0  0  0  0  0  0  0
    4.9670    1.0330    0.1020 C   0  0  1  0  0  0  0  0  0  0  0  0
    3.9050    1.9200    0.7610 C   0  0  0  0  0  0  0  0  0  0  0  0
    2.6100    1.5410   -0.0080 C   0  0  0  0  0  0  0  0  0  0  0  0
    2.8380    0.1180   -0.5750 C   0  0  2  0  0  0  0  0  0  0  0  0
    4.0450   -0.9720    1.3230 C   0  0  0  0  0  0  0  0  0  0  0  0
    7.9470   -1.1760    2.2600 C   0  0  0  0  0  0  0  0  0  0  0  0
    9.6390   -0.8530   -1.1840 C   0  0  0  0  0  0  0  0  0  0  0  0
   10.4120    0.4390   -0.9080 C   0  0  2  0  0  0  0  0  0  0  0  0
    9.5250    1.4060   -0.1210 C   0  0  0  0  0  0  0  0  0  0  0  0
    9.1220    0.7610    1.2060 C   0  0  1  0  0  0  0  0  0  0  0  0
    8.2400    1.7290    1.9980 C   0  0  0  0  0  0  0  0  0  0  0  0
    6.9760    2.0440    1.1950 C   0  0  2  0  0  0  0  0  0  0  0  0
    6.2030    0.7510    0.9340 C   0  0  2  0  0  0  0  0  0  0  0  0
    7.0910   -0.2070    0.1230 C   0  0  1  0  0  0  0  0  0  0  0  0
    1.7520   -0.8340   -0.0700 C   0  0  2  0  0  0  0  0  0  0  0  0
    2.0160   -2.2410   -0.6100 C   0  0  0  0  0  0  0  0  0  0  0  0
    0.3840   -0.3500   -0.5530 C   0  0  0  0  0  0  0  0  0  0  0  0
   -0.7120   -1.2290    0.0530 C   0  0  0  0  0  0  0  0  0  0  0  0
   -2.0590   -0.7520   -0.4230 C   0  0  0  0  0  0  0  0  0  0  0  0
   -3.1800   -1.3800   -0.0150 N   0  0  0  0  0  0  0  0  0  0  0  0
   -2.1360    0.1980   -1.1740 O   0  0  0  0  0  0  0  0  0  0  0  0
   10.7920    1.0410   -2.1470 O   0  0  0  0  0  0  0  0  0  0  0  0
    7.3390    2.6430   -0.0510 O   0  0  0  0  0  0  0  0  0  0  0  0
    5.2920   -0.5330   -2.1890 O   0  0  0  0  0  0  0  0  0  0  0  0
   10.1250   -1.7300    0.7230 H   0  0  0  0  0  0  0  0  0  0  0  0
    8.6790   -2.4160   -0.0560 H   0  0  0  0  0  0  0  0  0  0  0  0
    6.1420   -2.0450    0.6900 H   0  0  0  0  0  0  0  0  0  0  0  0
    6.9860   -2.1050   -0.8710 H   0  0  0  0  0  0  0  0  0  0  0  0
    4.4970   -2.1350   -1.1430 H   0  0  0  0  0  0  0  0  0  0  0  0
    5.2380    1.4290   -0.8770 H   0  0  0  0  0  0  0  0  0  0  0  0
    3.8080    1.6830    1.8200 H   0  0  0  0  0  0  0  0  0  0  0  0
    4.1440    2.9740    0.6240 H   0  0  0  0  0  0  0  0  0  0  0  0
    1.7580    1.5420    0.6710 H   0  0  0  0  0  0  0  0  0  0  0  0
    2.4390    2.2460   -0.8220 H   0  0  0  0  0  0  0  0  0  0  0  0
    2.8420    0.1410   -1.6640 H   0  0  0  0  0  0  0  0  0  0  0  0
    5.0300   -1.1910    1.7360 H   0  0  0  0  0  0  0  0  0  0  0  0
    3.5120   -0.2960    1.9920 H   0  0  0  0  0  0  0  0  0  0  0  0
    3.4810   -1.8980    1.2170 H   0  0  0  0  0  0  0  0  0  0  0  0
    8.8430   -1.4040    2.8380 H   0  0  0  0  0  0  0  0  0  0  0  0
    7.3170   -0.4870    2.8230 H   0  0  0  0  0  0  0  0  0  0  0  0
    7.3960   -2.0950    2.0650 H   0  0  0  0  0  0  0  0  0  0  0  0
   10.2710   -1.5420   -1.7430 H   0  0  0  0  0  0  0  0  0  0  0  0
    8.7470   -0.6240   -1.7660 H   0  0  0  0  0  0  0  0  0  0  0  0
   11.3050    0.2100   -0.3260 H   0  0  0  0  0  0  0  0  0  0  0  0
   10.0740    2.3260    0.0740 H   0  0  0  0  0  0  0  0  0  0  0  0
    8.6300    1.6320   -0.7020 H   0  0  0  0  0  0  0  0  0  0  0  0
   10.0160    0.5300    1.7840 H   0  0  0  0  0  0  0  0  0  0  0  0
    7.9630    1.2730    2.9480 H   0  0  0  0  0  0  0  0  0  0  0  0
    8.7910    2.6510    2.1850 H   0  0  0  0  0  0  0  0  0  0  0  0
    6.3500    2.7340    1.7610 H   0  0  0  0  0  0  0  0  0  0  0  0
    5.9140    0.2970    1.8820 H   0  0  0  0  0  0  0  0  0  0  0  0
    7.3940    0.2880   -0.7990 H   0  0  0  0  0  0  0  0  0  0  0  0
    1.7660   -0.8550    1.0200 H   0  0  0  0  0  0  0  0  0  0  0  0
    2.9910   -2.5860   -0.2650 H   0  0  0  0  0  0  0  0  0  0  0  0
    1.2420   -2.9190   -0.2500 H   0  0  0  0  0  0  0  0  0  0  0  0
    2.0030   -2.2200   -1.7000 H   0  0  0  0  0  0  0  0  0  0  0  0
    0.2340    0.6840   -0.2430 H   0  0  0  0  0  0  0  0  0  0  0  0
    0.3400   -0.4130   -1.6410 H   0  0  0  0  0  0  0  0  0  0  0  0
   -0.5620   -2.2630   -0.2570 H   0  0  0  0  0  0  0  0  0  0  0  0
   -0.6680   -1.1650    1.1410 H   0  0  0  0  0  0  0  0  0  0  0  0
   -3.1180   -2.1390    0.5860 H   0  0  0  0  0  0  0  0  0  0  0  0
   11.3570    0.4820   -2.6990 H   0  0  0  0  0  0  0  0  0  0  0  0
    7.8320    3.4690    0.0390 H   0  0  0  0  0  0  0  0  0  0  0  0
    5.8170   -1.0510   -2.8140 H   0  0  0  0  0  0  0  0  0  0  0  0
   -4.4900   -0.9160   -0.4780 C   0  0  0  0  0  0  0  0  0  0  0  0
   -5.5860   -1.7950    0.1290 C   0  0  0  0  0  0  0  0  0  0  0  0
   -6.9540   -1.3110   -0.3550 C   0  0  0  0  0  0  0  0  0  0  0  0
   -8.0060   -2.1540    0.2280 N   0  3  0  0  0  0  0  0  0  0  0  0
   -9.3200   -1.6890   -0.2370 C   0  0  0  0  0  0  0  0  0  0  0  0
   -7.8040   -3.5480   -0.1910 C   0  0  0  0  0  0  0  0  0  0  0  0
   -7.9460   -2.0690    1.6930 C   0  0  0  0  0  0  0  0  0  0  0  0
   -9.4970   -0.2140    0.1270 C   0  0  1  0  0  0  0  0  0  0  0  0
  -10.7820    0.3180   -0.5110 C   0  0  0  0  0  0  0  0  0  0  0  0
   -9.5790   -0.0810    1.5480 O   0  0  0  0  0  0  0  0  0  0  0  0
  -10.9160    2.1010   -0.2030 S   0  0  0  0  0  0  0  0  0  0  0  0
   -9.9140    2.8080   -0.9210 O   0  0  0  0  0  0  0  0  0  0  0  0
  -12.2180    2.5060   -0.8780 O   0  0  0  0  0  0  0  0  0  0  0  0
  -11.1440    2.3530    1.1770 O   0  0  0  0  0  0  0  0  0  0  0  0
   -4.6400    0.1180   -0.1680 H   0  0  0  0  0  0  0  0  0  0  0  0
   -4.5340   -0.9790   -1.5650 H   0  0  0  0  0  0  0  0  0  0  0  0
   -5.4360   -2.8290   -0.1820 H   0  0  0  0  0  0  0  0  0  0  0  0
   -5.5420   -1.7320    1.2160 H   0  0  0  0  0  0  0  0  0  0  0  0
   -7.1040   -0.2770   -0.0450 H   0  0  0  0  0  0  0  0  0  0  0  0
   -6.9980   -1.3740   -1.4420 H   0  0  0  0  0  0  0  0  0  0  0  0
   -9.3850   -1.8070   -1.3190 H   0  0  0  0  0  0  0  0  0  0  0  0
  -10.1030   -2.2780    0.2400 H   0  0  0  0  0  0  0  0  0  0  0  0
   -6.8770   -3.9260    0.2410 H   0  0  0  0  0  0  0  0  0  0  0  0
   -8.6400   -4.1560    0.1550 H   0  0  0  0  0  0  0  0  0  0  0  0
   -7.7450   -3.5960   -1.2780 H   0  0  0  0  0  0  0  0  0  0  0  0
   -7.9030   -1.0230    1.9950 H   0  0  0  0  0  0  0  0  0  0  0  0
   -8.8350   -2.5340    2.1200 H   0  0  0  0  0  0  0  0  0  0  0  0
   -7.0570   -2.5880    2.0510 H   0  0  0  0  0  0  0  0  0  0  0  0
   -8.6440    0.3560   -0.2420 H   0  0  0  0  0  0  0  0  0  0  0  0
  -10.7570    0.1360   -1.5850 H   0  0  0  0  0  0  0  0  0  0  0  0
  -11.6410   -0.1910   -0.0750 H   0  0  0  0  0  0  0  0  0  0  0  0
  -10.3170   -0.5630    1.9460 H   0  0  0  0  0  0  0  0  0  0  0  0
  -12.4280    3.4460   -0.7970 H   0  0  0  0  0  0  0  0  0  0  0  0
 24 25  1  0  0  0  0
 24 26  2  0  0  0  0
 23 24  1  0  0  0  0
 22 23  1  0  0  0  0
 13 27  1  0  0  0  0
  4 29  1  0  0  0  0
 17 28  1  0  0  0  0
 20 22  1  0  0  0  0
 20 21  1  0  0  0  0
  8  9  1  0  0  0  0
  9 20  1  0  0  0  0
  5  9  1  0  0  0  0
  7  8  1  0  0  0  0
 13 14  1  0  0  0  0
 12 13  1  0  0  0  0
 14 15  1  0  0  0  0
  6  7  1  0  0  0  0
  5  6  1  0  0  0  0
  6 18  1  0  0  0  0
  4  5  1  0  0  0  0
  3  4  1  0  0  0  0
  1 12  1  0  0  0  0
  5 10  1  0  0  0  0
 17 18  1  0  0  0  0
 16 17  1  0  0  0  0
  3 19  1  0  0  0  0
 18 19  1  0  0  0  0
  2 19  1  0  0  0  0
 15 16  1  0  0  0  0
  2 15  1  0  0  0  0
  1  2  1  0  0  0  0
  2 11  1  0  0  0  0
  1 30  1  0  0  0  0
  1 31  1  0  0  0  0
  3 32  1  0  0  0  0
  3 33  1  0  0  0  0
  4 34  1  0  0  0  0
  6 35  1  0  0  0  0
  7 36  1  0  0  0  0
  7 37  1  0  0  0  0
  8 38  1  0  0  0  0
  8 39  1  0  0  0  0
  9 40  1  0  0  0  0
 10 41  1  0  0  0  0
 10 42  1  0  0  0  0
 10 43  1  0  0  0  0
 11 44  1  0  0  0  0
 11 45  1  0  0  0  0
 11 46  1  0  0  0  0
 12 47  1  0  0  0  0
 12 48  1  0  0  0  0
 13 49  1  0  0  0  0
 14 50  1  0  0  0  0
 14 51  1  0  0  0  0
 15 52  1  0  0  0  0
 16 53  1  0  0  0  0
 16 54  1  0  0  0  0
 17 55  1  0  0  0  0
 18 56  1  0  0  0  0
 19 57  1  0  0  0  0
 20 58  1  0  0  0  0
 21 59  1  0  0  0  0
 21 60  1  0  0  0  0
 21 61  1  0  0  0  0
 22 62  1  0  0  0  0
 22 63  1  0  0  0  0
 23 64  1  0  0  0  0
 23 65  1  0  0  0  0
 25 66  1  0  0  0  0
 27 67  1  0  0  0  0
 28 68  1  0  0  0  0
 29 69  1  0  0  0  0
 25 70  1  0  0  0  0
 70 71  1  0  0  0  0
 71 72  1  0  0  0  0
 72 73  1  0  0  0  0
 73 74  1  0  0  0  0
 73 75  1  0  0  0  0
 73 76  1  0  0  0  0
 74 77  1  0  0  0  0
 77 78  1  0  0  0  0
 77 79  1  0  0  0  0
 78 80  1  0  0  0  0
 80 81  2  0  0  0  0
 80 82  1  0  0  0  0
 80 83  2  0  0  0  0
 70 84  1  0  0  0  0
 70 85  1  0  0  0  0
 71 86  1  0  0  0  0
 71 87  1  0  0  0  0
 72 88  1  0  0  0  0
 72 89  1  0  0  0  0
 74 90  1  0  0  0  0
 74 91  1  0  0  0  0
 75 92  1  0  0  0  0
 75 93  1  0  0  0  0
 75 94  1  0  0  0  0
 76 95  1  0  0  0  0
 76 96  1  0  0  0  0
 76 97  1  0  0  0  0
 77 98  1  0  0  0  0
 78 99  1  0  0  0  0
 78100  1  0  0  0  0
 79101  1  0  0  0  0
 82102  1  0  0  0  0
M  CHG  1  73   1
M  END
> <OPENEYE_ISO_SMILES>
C[C@H](CCC(=O)NCCC[N+](C)(C)C[C@@H](CS(=O)(=O)O)O)[C@H]1CC[C@@H]2[C@@]1([C@H](C[C@H]3[C@H]2[C@@H](C[C@H]4[C@@]3(CC[C@H](C4)O)C)O)O)C

> <OPENEYE_INCHI>
InChI=1S/C32H58N2O8S/c1-20(7-10-29(39)33-13-6-14-34(4,5)18-23(36)19-43(40,41)42)24-8-9-25-30-26(17-28(38)32(24,25)3)31(2)12-11-22(35)15-21(31)16-27(30)37/h20-28,30,35-38H,6-19H2,1-5H3,(H-,33,39,40,41,42)/p+1/t20-,21+,22-,23+,24-,25+,26+,27-,28+,30+,31+,32-/m1/s1

> <OPENEYE_INCHIKEY>
GUQQBLRVXOUDTN-PGNINJBRSA-O

> <FORMULA>
C32H59N2O8S+

$$$$
