ZU5
  -OEChem-02242320043D

 97 99  0     1  0  0  0  0  0999 V2000
    4.8860   -0.0530   -0.9160 C   0  0  0  0  0  0  0  0  0  0  0  0
    4.7530   -0.1440   -2.1200 O   0  0  0  0  0  0  0  0  0  0  0  0
    6.0390    0.4100   -0.3990 O   0  0  0  0  0  0  0  0  0  0  0  0
    7.0810    0.7820   -1.3400 C   0  0  0  0  0  0  0  0  0  0  0  0
    8.2880    1.2740   -0.5840 C   0  0  0  0  0  0  0  0  0  0  0  0
    9.2740    0.3830   -0.2000 C   0  0  0  0  0  0  0  0  0  0  0  0
   10.3810    0.8340    0.4930 C   0  0  0  0  0  0  0  0  0  0  0  0
   10.5040    2.1760    0.8020 C   0  0  0  0  0  0  0  0  0  0  0  0
    9.5190    3.0670    0.4180 C   0  0  0  0  0  0  0  0  0  0  0  0
    8.4130    2.6160   -0.2790 C   0  0  0  0  0  0  0  0  0  0  0  0
    3.8780   -0.4160   -0.0970 N   0  0  0  0  0  0  0  0  0  0  0  0
    2.5870   -0.8200   -0.6590 C   0  0  2  0  0  0  0  0  0  0  0  0
    1.4730   -0.2530    0.1820 C   0  0  0  0  0  0  0  0  0  0  0  0
    1.7040    0.1520    1.3020 O   0  0  0  0  0  0  0  0  0  0  0  0
    2.4910   -2.3470   -0.6700 C   0  0  2  0  0  0  0  0  0  0  0  0
    2.6030   -2.8410    0.6670 O   0  0  0  0  0  0  0  0  0  0  0  0
    3.6230   -2.9240   -1.5230 C   0  0  0  0  0  0  0  0  0  0  0  0
    1.7310   -3.9340    0.9580 C   0  0  0  0  0  0  0  0  0  0  0  0
    1.9540   -5.0510   -0.0640 C   0  0  0  0  0  0  0  0  0  0  0  0
    2.0270   -4.4630    2.3630 C   0  0  0  0  0  0  0  0  0  0  0  0
    0.2780   -3.4600    0.8870 C   0  0  0  0  0  0  0  0  0  0  0  0
    0.2200   -0.1940   -0.3100 N   0  0  0  0  0  0  0  0  0  0  0  0
   -0.8400    0.4610    0.4600 C   0  0  2  0  0  0  0  0  0  0  0  0
   -2.1770   -0.1050    0.0580 C   0  0  0  0  0  0  0  0  0  0  0  0
   -2.2390   -0.9710   -0.7900 O   0  0  0  0  0  0  0  0  0  0  0  0
   -0.8180    1.9650    0.1810 C   0  0  0  0  0  0  0  0  0  0  0  0
    0.4910    2.5610    0.7040 C   0  0  0  0  0  0  0  0  0  0  0  0
    0.5690    4.0390    0.3150 C   0  0  0  0  0  0  0  0  0  0  0  0
    0.5370    2.4320    2.2280 C   0  0  0  0  0  0  0  0  0  0  0  0
   -6.3510    4.5930   -0.7410 C   0  0  0  0  0  0  0  0  0  0  0  0
   -7.6580    5.3740   -0.8920 C   0  0  0  0  0  0  0  0  0  0  0  0
   -6.6030    5.8350    0.1160 C   0  0  0  0  0  0  0  0  0  0  0  0
   -6.4170    3.2510   -0.0580 C   0  0  0  0  0  0  0  0  0  0  0  0
   -5.3740    2.2040   -0.3510 C   0  0  0  0  0  0  0  0  0  0  0  0
   -5.6710    0.9460    0.4670 C   0  0  0  0  0  0  0  0  0  0  0  0
   -4.6110   -0.1170    0.1700 C   0  0  2  0  0  0  0  0  0  0  0  0
   -4.9760   -1.4170    0.8910 C   0  0  0  0  0  0  0  0  0  0  0  0
   -6.2700   -1.9810    0.3000 C   0  0  2  0  0  0  0  0  0  0  0  0
   -6.7220   -3.2340    1.0860 C   0  0  0  0  0  0  0  0  0  0  0  0
   -7.2990   -4.1210   -0.0390 C   0  0  0  0  0  0  0  0  0  0  0  0
   -6.6150   -3.6910   -1.2650 N   0  0  0  0  0  0  0  0  0  0  0  0
   -6.0330   -2.4900   -1.1040 C   0  0  0  0  0  0  0  0  0  0  0  0
   -5.4100   -1.9000   -1.9610 O   0  0  0  0  0  0  0  0  0  0  0  0
   -7.3060    3.0160    0.7250 O   0  0  0  0  0  0  0  0  0  0  0  0
   -3.3050    0.3500    0.6390 N   0  0  0  0  0  0  0  0  0  0  0  0
    7.3560   -0.0860   -1.9390 H   0  0  0  0  0  0  0  0  0  0  0  0
    6.7140    1.5730   -1.9930 H   0  0  0  0  0  0  0  0  0  0  0  0
    9.1780   -0.6650   -0.4420 H   0  0  0  0  0  0  0  0  0  0  0  0
   11.1510    0.1390    0.7930 H   0  0  0  0  0  0  0  0  0  0  0  0
   11.3690    2.5280    1.3450 H   0  0  0  0  0  0  0  0  0  0  0  0
    9.6140    4.1150    0.6600 H   0  0  0  0  0  0  0  0  0  0  0  0
    7.6460    3.3120   -0.5820 H   0  0  0  0  0  0  0  0  0  0  0  0
    4.0080   -0.4090    0.8640 H   0  0  0  0  0  0  0  0  0  0  0  0
    2.5010   -0.4440   -1.6790 H   0  0  0  0  0  0  0  0  0  0  0  0
    1.5310   -2.6480   -1.0880 H   0  0  0  0  0  0  0  0  0  0  0  0
    4.5800   -2.7200   -1.0430 H   0  0  0  0  0  0  0  0  0  0  0  0
    3.4890   -4.0010   -1.6240 H   0  0  0  0  0  0  0  0  0  0  0  0
    3.6050   -2.4610   -2.5100 H   0  0  0  0  0  0  0  0  0  0  0  0
    2.9960   -5.3690   -0.0330 H   0  0  0  0  0  0  0  0  0  0  0  0
    1.3080   -5.8960    0.1740 H   0  0  0  0  0  0  0  0  0  0  0  0
    1.7170   -4.6820   -1.0620 H   0  0  0  0  0  0  0  0  0  0  0  0
    1.8680   -3.6670    3.0910 H   0  0  0  0  0  0  0  0  0  0  0  0
    1.3610   -5.2970    2.5850 H   0  0  0  0  0  0  0  0  0  0  0  0
    3.0620   -4.8000    2.4140 H   0  0  0  0  0  0  0  0  0  0  0  0
    0.0270   -3.2110   -0.1440 H   0  0  0  0  0  0  0  0  0  0  0  0
   -0.3810   -4.2540    1.2390 H   0  0  0  0  0  0  0  0  0  0  0  0
    0.1520   -2.5790    1.5150 H   0  0  0  0  0  0  0  0  0  0  0  0
    0.0190   -0.5860   -1.1740 H   0  0  0  0  0  0  0  0  0  0  0  0
   -0.6770    0.2860    1.5240 H   0  0  0  0  0  0  0  0  0  0  0  0
   -0.8920    2.1360   -0.8930 H   0  0  0  0  0  0  0  0  0  0  0  0
   -1.6600    2.4400    0.6840 H   0  0  0  0  0  0  0  0  0  0  0  0
    1.3340    2.0260    0.2680 H   0  0  0  0  0  0  0  0  0  0  0  0
   -0.2750    4.5750    0.7520 H   0  0  0  0  0  0  0  0  0  0  0  0
    1.5010    4.4640    0.6880 H   0  0  0  0  0  0  0  0  0  0  0  0
    0.5350    4.1320   -0.7700 H   0  0  0  0  0  0  0  0  0  0  0  0
    0.4820    1.3790    2.5050 H   0  0  0  0  0  0  0  0  0  0  0  0
    1.4690    2.8570    2.6000 H   0  0  0  0  0  0  0  0  0  0  0  0
   -0.3060    2.9670    2.6640 H   0  0  0  0  0  0  0  0  0  0  0  0
   -5.6200    4.6760   -1.5450 H   0  0  0  0  0  0  0  0  0  0  0  0
   -7.7860    5.9710   -1.7950 H   0  0  0  0  0  0  0  0  0  0  0  0
   -8.5660    4.9180   -0.4970 H   0  0  0  0  0  0  0  0  0  0  0  0
   -6.8160    5.6820    1.1730 H   0  0  0  0  0  0  0  0  0  0  0  0
   -6.0370    6.7350   -0.1250 H   0  0  0  0  0  0  0  0  0  0  0  0
   -5.3930    1.9600   -1.4130 H   0  0  0  0  0  0  0  0  0  0  0  0
   -5.6520    1.1900    1.5290 H   0  0  0  0  0  0  0  0  0  0  0  0
   -4.5690   -0.2970   -0.9040 H   0  0  0  0  0  0  0  0  0  0  0  0
   -4.1720   -2.1410    0.7630 H   0  0  0  0  0  0  0  0  0  0  0  0
   -5.1190   -1.2160    1.9520 H   0  0  0  0  0  0  0  0  0  0  0  0
   -7.0540   -1.2230    0.3060 H   0  0  0  0  0  0  0  0  0  0  0  0
   -5.8740   -3.7180    1.5700 H   0  0  0  0  0  0  0  0  0  0  0  0
   -7.4920   -2.9800    1.8150 H   0  0  0  0  0  0  0  0  0  0  0  0
   -7.0870   -5.1710    0.1630 H   0  0  0  0  0  0  0  0  0  0  0  0
   -8.3730   -3.9630   -0.1320 H   0  0  0  0  0  0  0  0  0  0  0  0
   -6.5870   -4.2080   -2.0850 H   0  0  0  0  0  0  0  0  0  0  0  0
   -3.2510    0.9880    1.3680 H   0  0  0  0  0  0  0  0  0  0  0  0
   -4.3890    2.5880   -0.0830 H   0  0  0  0  0  0  0  0  0  0  0  0
   -6.6550    0.5620    0.2000 H   0  0  0  0  0  0  0  0  0  0  0  0
 30 31  1  0  0  0  0
 30 32  1  0  0  0  0
 30 33  1  0  0  0  0
 31 32  1  0  0  0  0
 33 34  1  0  0  0  0
 33 44  2  0  0  0  0
 34 35  1  0  0  0  0
 35 36  1  0  0  0  0
 36 37  1  0  0  0  0
 36 45  1  0  0  0  0
 37 38  1  0  0  0  0
 38 39  1  0  0  0  0
 38 42  1  0  0  0  0
 39 40  1  0  0  0  0
 40 41  1  0  0  0  0
 41 42  1  0  0  0  0
 42 43  2  0  0  0  0
 24 45  1  0  0  0  0
 24 25  2  0  0  0  0
 23 24  1  0  0  0  0
 23 26  1  0  0  0  0
 22 23  1  0  0  0  0
 26 27  1  0  0  0  0
 27 28  1  0  0  0  0
 27 29  1  0  0  0  0
 13 22  1  0  0  0  0
 13 14  2  0  0  0  0
 12 13  1  0  0  0  0
 12 15  1  0  0  0  0
 11 12  1  0  0  0  0
 15 17  1  0  0  0  0
 15 16  1  0  0  0  0
 16 18  1  0  0  0  0
 18 19  1  0  0  0  0
 18 20  1  0  0  0  0
 18 21  1  0  0  0  0
  1 11  1  0  0  0  0
  1  2  2  0  0  0  0
  1  3  1  0  0  0  0
  3  4  1  0  0  0  0
  4  5  1  0  0  0  0
  5  6  2  0  0  0  0
  5 10  1  0  0  0  0
  6  7  1  0  0  0  0
  7  8  2  0  0  0  0
  8  9  1  0  0  0  0
  9 10  2  0  0  0  0
 30 79  1  0  0  0  0
 31 80  1  0  0  0  0
 31 81  1  0  0  0  0
 32 82  1  0  0  0  0
 32 83  1  0  0  0  0
 34 84  1  0  0  0  0
 35 85  1  0  0  0  0
 36 86  1  0  0  0  0
 37 87  1  0  0  0  0
 37 88  1  0  0  0  0
 38 89  1  0  0  0  0
 39 90  1  0  0  0  0
 39 91  1  0  0  0  0
 40 92  1  0  0  0  0
 40 93  1  0  0  0  0
 41 94  1  0  0  0  0
 45 95  1  0  0  0  0
 23 69  1  0  0  0  0
 26 70  1  0  0  0  0
 26 71  1  0  0  0  0
 27 72  1  0  0  0  0
 28 73  1  0  0  0  0
 28 74  1  0  0  0  0
 28 75  1  0  0  0  0
 29 76  1  0  0  0  0
 29 77  1  0  0  0  0
 29 78  1  0  0  0  0
 22 68  1  0  0  0  0
 12 54  1  0  0  0  0
 15 55  1  0  0  0  0
 17 56  1  0  0  0  0
 17 57  1  0  0  0  0
 17 58  1  0  0  0  0
 19 59  1  0  0  0  0
 19 60  1  0  0  0  0
 19 61  1  0  0  0  0
 20 62  1  0  0  0  0
 20 63  1  0  0  0  0
 20 64  1  0  0  0  0
 21 65  1  0  0  0  0
 21 66  1  0  0  0  0
 21 67  1  0  0  0  0
 11 53  1  0  0  0  0
  4 46  1  0  0  0  0
  4 47  1  0  0  0  0
  6 48  1  0  0  0  0
  7 49  1  0  0  0  0
  8 50  1  0  0  0  0
  9 51  1  0  0  0  0
 10 52  1  0  0  0  0
 34 96  1  0  0  0  0
 35 97  1  0  0  0  0
M  END
> <OPENEYE_ISO_SMILES>
C[C@H]([C@@H](C(=O)N[C@@H](CC(C)C)C(=O)N[C@H](CCC(=O)C1CC1)C[C@@H]2CCNC2=O)NC(=O)OCc3ccccc3)OC(C)(C)C

> <OPENEYE_INCHI>
InChI=1S/C34H52N4O7/c1-21(2)18-27(31(41)36-26(14-15-28(39)24-12-13-24)19-25-16-17-35-30(25)40)37-32(42)29(22(3)45-34(4,5)6)38-33(43)44-20-23-10-8-7-9-11-23/h7-11,21-22,24-27,29H,12-20H2,1-6H3,(H,35,40)(H,36,41)(H,37,42)(H,38,43)/t22-,25+,26-,27+,29+/m1/s1

> <OPENEYE_INCHIKEY>
QIMPWBPEAHOISN-XSLDCGIXSA-N

> <FORMULA>
C34H52N4O7

$$$$
