RCR
  -OEChem-02242320043D

 42 46  0     1  0  0  0  0  0999 V2000
   -1.1220    4.0220   -0.0890 C   0  0  0  0  0  0  0  0  0  0  0  0
    0.9570    3.0310   -0.0790 C   0  0  0  0  0  0  0  0  0  0  0  0
    1.4270   -0.6200    0.0760 C   0  0  0  0  0  0  0  0  0  0  0  0
    2.6310   -1.2900    0.0820 C   0  0  0  0  0  0  0  0  0  0  0  0
    3.8240   -0.5840    0.0210 C   0  0  0  0  0  0  0  0  0  0  0  0
    3.8200    0.7930   -0.0460 C   0  0  0  0  0  0  0  0  0  0  0  0
   -2.6230    0.4470    1.2620 C   0  0  0  0  0  0  0  0  0  0  0  0
   -3.9040   -1.8150   -1.3100 C   0  0  0  0  0  0  0  0  0  0  0  0
   -3.8350   -0.4720   -0.6290 C   0  0  2  0  0  0  0  0  0  0  0  0
   -2.5920    0.3080   -1.1050 C   0  0  0  0  0  0  0  0  0  0  0  0
   -1.0650    1.7190    0.0140 C   0  0  0  0  0  0  0  0  0  0  0  0
    0.3330    1.7750   -0.0200 C   0  0  0  0  0  0  0  0  0  0  0  0
    1.4090    0.7720    0.0070 C   0  0  0  0  0  0  0  0  0  0  0  0
    2.6150    1.4870   -0.0550 C   0  0  0  0  0  0  0  0  0  0  0  0
   -3.6310   -0.6500    0.8810 C   0  0  0  0  0  0  0  0  0  0  0  0
   -3.2940   -2.0600    1.3530 C   0  0  0  0  0  0  0  0  0  0  0  0
   -4.1610   -1.7570    2.5890 C   0  0  0  0  0  0  0  0  0  0  0  0
   -4.8980   -0.7140    1.7270 C   0  0  0  0  0  0  0  0  0  0  0  0
   -4.9990    0.2610   -0.8810 F   0  0  0  0  0  0  0  0  0  0  0  0
   -1.7240    0.5040    0.0780 N   0  0  1  0  0  0  0  0  0  0  0  0
    2.3170    2.8390   -0.0900 N   0  0  0  0  0  0  0  0  0  0  0  0
    0.1900    4.1200   -0.1120 N   0  0  0  0  0  0  0  0  0  0  0  0
   -1.7470    2.8610   -0.0290 N   0  0  0  0  0  0  0  0  0  0  0  0
   -4.9920   -2.5870   -1.1630 O   0  0  0  0  0  0  0  0  0  0  0  0
   -2.9800   -2.1960   -1.9890 O   0  0  0  0  0  0  0  0  0  0  0  0
    5.4680   -1.5180    0.0310 Br  0  0  0  0  0  0  0  0  0  0  0  0
   -1.7100    4.9270   -0.1170 H   0  0  0  0  0  0  0  0  0  0  0  0
    0.5000   -1.1710    0.1230 H   0  0  0  0  0  0  0  0  0  0  0  0
    2.6460   -2.3680    0.1360 H   0  0  0  0  0  0  0  0  0  0  0  0
    4.7540    1.3340   -0.0930 H   0  0  0  0  0  0  0  0  0  0  0  0
   -3.1290    1.4010    1.4070 H   0  0  0  0  0  0  0  0  0  0  0  0
   -2.0660    0.1670    2.1560 H   0  0  0  0  0  0  0  0  0  0  0  0
   -2.0600   -0.2670   -1.8640 H   0  0  0  0  0  0  0  0  0  0  0  0
   -2.8920    1.2740   -1.5090 H   0  0  0  0  0  0  0  0  0  0  0  0
   -3.7000   -2.8440    0.7150 H   0  0  0  0  0  0  0  0  0  0  0  0
   -2.2380   -2.2040    1.5820 H   0  0  0  0  0  0  0  0  0  0  0  0
   -4.7910   -2.5920    2.8950 H   0  0  0  0  0  0  0  0  0  0  0  0
   -3.6030   -1.3220    3.4180 H   0  0  0  0  0  0  0  0  0  0  0  0
   -5.1190    0.2130    2.2560 H   0  0  0  0  0  0  0  0  0  0  0  0
   -5.7600   -1.1170    1.1950 H   0  0  0  0  0  0  0  0  0  0  0  0
    2.9760    3.5500   -0.1280 H   0  0  0  0  0  0  0  0  0  0  0  0
   -4.9900   -3.4400   -1.6190 H   0  0  0  0  0  0  0  0  0  0  0  0
  8 25  2  0  0  0  0
  8 24  1  0  0  0  0
  8  9  1  0  0  0  0
 17 18  1  0  0  0  0
 15 18  1  0  0  0  0
  9 19  1  0  0  0  0
 16 17  1  0  0  0  0
  9 15  1  0  0  0  0
  9 10  1  0  0  0  0
 15 16  1  0  0  0  0
  7 15  1  0  0  0  0
 10 20  1  0  0  0  0
  7 20  1  0  0  0  0
 11 20  1  0  0  0  0
  3  4  2  0  0  0  0
  3 13  1  0  0  0  0
  4  5  1  0  0  0  0
 11 23  2  0  0  0  0
 11 12  1  0  0  0  0
 12 13  1  0  0  0  0
 13 14  2  0  0  0  0
  1 23  1  0  0  0  0
  2 12  2  0  0  0  0
  5 26  1  0  0  0  0
  5  6  2  0  0  0  0
  6 14  1  0  0  0  0
 14 21  1  0  0  0  0
  1 22  2  0  0  0  0
  2 21  1  0  0  0  0
  2 22  1  0  0  0  0
  1 27  1  0  0  0  0
  3 28  1  0  0  0  0
  4 29  1  0  0  0  0
  6 30  1  0  0  0  0
  7 31  1  0  0  0  0
  7 32  1  0  0  0  0
 10 33  1  0  0  0  0
 10 34  1  0  0  0  0
 16 35  1  0  0  0  0
 16 36  1  0  0  0  0
 17 37  1  0  0  0  0
 17 38  1  0  0  0  0
 18 39  1  0  0  0  0
 18 40  1  0  0  0  0
 21 41  1  0  0  0  0
 24 42  1  0  0  0  0
M  END
> <OPENEYE_ISO_SMILES>
c1cc2c(cc1Br)[nH]c3c2c(ncn3)[N@@]4C[C@](C5(C4)CCC5)(C(=O)O)F

> <OPENEYE_INCHI>
InChI=1S/C18H16BrFN4O2/c19-10-2-3-11-12(6-10)23-14-13(11)15(22-9-21-14)24-7-17(4-1-5-17)18(20,8-24)16(25)26/h2-3,6,9H,1,4-5,7-8H2,(H,25,26)(H,21,22,23)/t18-/m1/s1

> <OPENEYE_INCHIKEY>
RIJVOOFUJLZCSA-GOSISDBHSA-N

> <FORMULA>
C18H16BrFN4O2

$$$$
