RD6
  -OEChem-02242320043D

 42 46  0     1  0  0  0  0  0999 V2000
    3.9040   -1.8180   -1.3050 C   0  0  0  0  0  0  0  0  0  0  0  0
    3.8350   -0.4750   -0.6260 C   0  0  1  0  0  0  0  0  0  0  0  0
    2.5920    0.3050   -1.1030 C   0  0  0  0  0  0  0  0  0  0  0  0
    1.0650    1.7180    0.0120 C   0  0  0  0  0  0  0  0  0  0  0  0
   -0.3330    1.7750   -0.0170 C   0  0  0  0  0  0  0  0  0  0  0  0
   -1.4090    0.7720    0.0070 C   0  0  0  0  0  0  0  0  0  0  0  0
   -2.6150    1.4880   -0.0480 C   0  0  0  0  0  0  0  0  0  0  0  0
   -3.8200    0.7950   -0.0400 C   0  0  0  0  0  0  0  0  0  0  0  0
   -3.8240   -0.5830    0.0210 C   0  0  0  0  0  0  0  0  0  0  0  0
   -2.6310   -1.2900    0.0750 C   0  0  0  0  0  0  0  0  0  0  0  0
   -1.4270   -0.6200    0.0680 C   0  0  0  0  0  0  0  0  0  0  0  0
   -0.9570    3.0310   -0.0840 C   0  0  0  0  0  0  0  0  0  0  0  0
    1.1230    4.0210   -0.0880 C   0  0  0  0  0  0  0  0  0  0  0  0
    2.6220    0.4470    1.2630 C   0  0  0  0  0  0  0  0  0  0  0  0
    3.6300   -0.6500    0.8850 C   0  0  0  0  0  0  0  0  0  0  0  0
    3.2920   -2.0590    1.3580 C   0  0  0  0  0  0  0  0  0  0  0  0
    4.1580   -1.7550    2.5950 C   0  0  0  0  0  0  0  0  0  0  0  0
    4.8960   -0.7140    1.7320 C   0  0  0  0  0  0  0  0  0  0  0  0
    4.9980    0.2590   -0.8800 F   0  0  0  0  0  0  0  0  0  0  0  0
    1.7230    0.5030    0.0790 N   0  0  2  0  0  0  0  0  0  0  0  0
   -2.3160    2.8390   -0.1020 N   0  0  0  0  0  0  0  0  0  0  0  0
   -0.1890    4.1200   -0.1180 N   0  0  0  0  0  0  0  0  0  0  0  0
    1.7480    2.8610   -0.0300 N   0  0  0  0  0  0  0  0  0  0  0  0
    2.9530   -2.2310   -1.9250 O   0  0  0  0  0  0  0  0  0  0  0  0
    5.0240   -2.5530   -1.2250 O   0  0  0  0  0  0  0  0  0  0  0  0
   -5.4680   -1.5170    0.0310 Br  0  0  0  0  0  0  0  0  0  0  0  0
    2.8930    1.2710   -1.5090 H   0  0  0  0  0  0  0  0  0  0  0  0
    2.0630   -0.2690   -1.8640 H   0  0  0  0  0  0  0  0  0  0  0  0
   -4.7540    1.3350   -0.0820 H   0  0  0  0  0  0  0  0  0  0  0  0
   -2.6460   -2.3680    0.1230 H   0  0  0  0  0  0  0  0  0  0  0  0
   -0.5000   -1.1720    0.1100 H   0  0  0  0  0  0  0  0  0  0  0  0
    1.7120    4.9260   -0.1210 H   0  0  0  0  0  0  0  0  0  0  0  0
    2.0640    0.1660    2.1570 H   0  0  0  0  0  0  0  0  0  0  0  0
    3.1280    1.4020    1.4080 H   0  0  0  0  0  0  0  0  0  0  0  0
    2.2360   -2.2020    1.5880 H   0  0  0  0  0  0  0  0  0  0  0  0
    3.6970   -2.8450    0.7200 H   0  0  0  0  0  0  0  0  0  0  0  0
    3.5990   -1.3180    3.4220 H   0  0  0  0  0  0  0  0  0  0  0  0
    4.7860   -2.5910    2.9030 H   0  0  0  0  0  0  0  0  0  0  0  0
    5.7580   -1.1170    1.2010 H   0  0  0  0  0  0  0  0  0  0  0  0
    5.1170    0.2140    2.2590 H   0  0  0  0  0  0  0  0  0  0  0  0
   -2.9750    3.5500   -0.1460 H   0  0  0  0  0  0  0  0  0  0  0  0
    5.0210   -3.4080   -1.6770 H   0  0  0  0  0  0  0  0  0  0  0  0
 17 18  1  0  0  0  0
 15 18  1  0  0  0  0
 13 23  2  0  0  0  0
 13 22  1  0  0  0  0
  4 23  1  0  0  0  0
 14 15  1  0  0  0  0
 14 20  1  0  0  0  0
 16 17  1  0  0  0  0
 15 16  1  0  0  0  0
  2 15  1  0  0  0  0
 12 22  2  0  0  0  0
  2 19  1  0  0  0  0
  4 20  1  0  0  0  0
  4  5  2  0  0  0  0
  3 20  1  0  0  0  0
  2  3  1  0  0  0  0
  1  2  1  0  0  0  0
  5 12  1  0  0  0  0
 12 21  1  0  0  0  0
  5  6  1  0  0  0  0
  1 24  2  0  0  0  0
  1 25  1  0  0  0  0
  7 21  1  0  0  0  0
  6  7  2  0  0  0  0
  6 11  1  0  0  0  0
  7  8  1  0  0  0  0
 10 11  2  0  0  0  0
  8  9  2  0  0  0  0
  9 10  1  0  0  0  0
  9 26  1  0  0  0  0
  3 27  1  0  0  0  0
  3 28  1  0  0  0  0
  8 29  1  0  0  0  0
 10 30  1  0  0  0  0
 11 31  1  0  0  0  0
 13 32  1  0  0  0  0
 14 33  1  0  0  0  0
 14 34  1  0  0  0  0
 16 35  1  0  0  0  0
 16 36  1  0  0  0  0
 17 37  1  0  0  0  0
 17 38  1  0  0  0  0
 18 39  1  0  0  0  0
 18 40  1  0  0  0  0
 21 41  1  0  0  0  0
 25 42  1  0  0  0  0
M  END
> <OPENEYE_ISO_SMILES>
c1cc2c(cc1Br)[nH]c3c2c(ncn3)[N@]4C[C@@](C5(C4)CCC5)(C(=O)O)F

> <OPENEYE_INCHI>
InChI=1S/C18H16BrFN4O2/c19-10-2-3-11-12(6-10)23-14-13(11)15(22-9-21-14)24-7-17(4-1-5-17)18(20,8-24)16(25)26/h2-3,6,9H,1,4-5,7-8H2,(H,25,26)(H,21,22,23)/t18-/m0/s1

> <OPENEYE_INCHIKEY>
RIJVOOFUJLZCSA-SFHVURJKSA-N

> <FORMULA>
C18H16BrFN4O2

$$$$
