@<TRIPOS>MOLECULE
/home/pku/3cl/gett_pdb/7C2K/7C2K_mol2/ligand/7C2K_F86.pdb
 24 26 0 0 0
SMALL
GASTEIGER

@<TRIPOS>ATOM
      1  C8       142.1750  139.0580  143.4750 C.1     4  F864        0.1076
      2  C5       140.7500  138.6920  145.3610 C.ar    4  F864        0.1010
      3  C6       138.1350  141.4710  143.6930 C.3     4  F864        0.1851
      4  N1       141.4770  137.6780  145.8580 N.ar    4  F864       -0.2261
      5  C2       139.7710  138.2900  143.1770 C.3     4  F864        0.2281
      6  N3       143.2220  139.0010  143.0460 N.1     4  F864       -0.1930
      7  C4       139.2120  140.5530  143.1920 C.3     4  F864        0.1797
      8  O2       140.3200  138.1970  141.7810 O.3     4  F864       -0.2162
      9  N2       142.3700  136.8710  145.2290 N.ar    4  F864       -0.1424
     10  O4       137.7320  141.0330  144.9590 O.3     4  F864       -0.2722
     11  N4       142.7860  135.7090  147.1680 N.ar    4  F864       -0.2027
     12  C7       139.9840  139.2120  146.3900 C.ar    4  F864        0.0199
     13  O6       136.4610  141.3660  147.1810 O.2     4  F864       -0.2272
     14  C1       140.7640  139.1370  144.0540 C.3     4  F864        0.2362
     15  C10      140.2820  138.4700  147.5250 C.ar    4  F864        0.0234
     16  C11      141.9060  136.4880  147.8360 C.ar    4  F864        0.1889
     17  C12      143.0020  135.9190  145.8640 C.ar    4  F864        0.2212
     18  C3       138.6930  138.9670  143.2420 C.3     4  F864        0.2154
     19  C9       141.2340  137.5130  147.1260 C.ar    4  F864        0.1173
     20  N5       141.6550  136.2790  149.2500 N.pl3   4  F864       -0.1055
     21  O1       140.2330  140.5980  143.9700 O.3     4  F864       -0.3348
     22  O3       137.7600  138.6820  142.1540 O.3     4  F864       -0.2176
     23  P1       136.8850  142.0750  145.9160 P.3     4  F864        0.5411
     24  O7       135.5480  142.6020  145.1070 O.2     4  F864       -0.2272
@<TRIPOS>BOND
     1     8     5    1
     2    22    18    1
     3     6     1    3
     4     5    18    1
     5     5    14    1
     6     7    18    1
     7     7     3    1
     8     7    21    1
     9     1    14    1
    10     3    10    1
    11    21    14    1
    12    14     2    1
    13    10    23    1
    14    24    23    2
    15     9     4   ar
    16     9    17   ar
    17     2     4   ar
    18     2    12   ar
    19     4    19   ar
    20    17    11   ar
    21    23    13    2
    22    12    15   ar
    23    19    15   ar
    24    19    16   ar
    25    11    16   ar
    26    16    20    1
