ESS
  -OEChem-02242320023D

 73 75  0     1  0  0  0  0  0999 V2000
    4.5750   -0.2510   -0.8060 C   0  0  0  0  0  0  0  0  0  0  0  0
    6.6040    0.3240    0.8280 C   0  0  0  0  0  0  0  0  0  0  0  0
   -3.6570   -0.2310    0.5540 N   0  0  0  0  0  0  0  0  0  0  0  0
    3.5190    0.3120    0.1630 C   0  0  0  0  0  0  0  0  0  0  0  0
    4.3490    1.6080    0.2030 C   0  0  0  0  0  0  0  0  0  0  0  0
    5.5490    0.7470   -0.1870 C   0  0  0  0  0  0  0  0  0  0  0  0
    6.7320    1.3130   -0.9640 C   0  0  0  0  0  0  0  0  0  0  0  0
   -6.9070    1.4070    0.1310 C   0  0  0  0  0  0  0  0  0  0  0  0
   -4.4330   -2.0720   -0.8570 C   0  0  2  0  0  0  0  0  0  0  0  0
   -7.6260    2.7500   -0.1300 C   0  0  0  0  0  0  0  0  0  0  0  0
   -4.7990   -0.7330   -0.2140 C   0  0  2  0  0  0  0  0  0  0  0  0
   -5.1630    0.2750   -1.3060 C   0  0  0  0  0  0  0  0  0  0  0  0
   -5.5910    1.5940   -0.6600 C   0  0  1  0  0  0  0  0  0  0  0  0
   -5.9390    2.6150   -1.7210 C   0  0  0  0  0  0  0  0  0  0  0  0
    1.1410    0.3540    0.3720 C   0  0  0  0  0  0  0  0  0  0  0  0
   -1.2640    0.3620    0.7590 C   0  0  1  0  0  0  0  0  0  0  0  0
   -1.5420    1.7000    1.4470 C   0  0  0  0  0  0  0  0  0  0  0  0
   -0.3720    2.0530    2.3670 C   0  0  0  0  0  0  0  0  0  0  0  0
   -0.5910    3.4470    2.9590 C   0  0  0  0  0  0  0  0  0  0  0  0
   -0.2860    1.0260    3.4990 C   0  0  0  0  0  0  0  0  0  0  0  0
   -2.4670   -0.0450   -0.0520 C   0  0  0  0  0  0  0  0  0  0  0  0
   -0.1030    0.4980   -0.1240 N   0  0  0  0  0  0  0  0  0  0  0  0
   -7.0850    3.2430   -1.4020 N   0  0  0  0  0  0  0  0  0  0  0  0
    7.5790    0.3230   -0.2760 N   0  0  0  0  0  0  0  0  0  0  0  0
    1.3010    0.1110    1.5520 O   0  0  0  0  0  0  0  0  0  0  0  0
   -5.2800    2.8360   -2.7150 O   0  0  0  0  0  0  0  0  0  0  0  0
   -5.5280   -2.5360   -1.6480 O   0  0  0  0  0  0  0  0  0  0  0  0
   -2.3650   -0.2060   -1.2500 O   0  0  0  0  0  0  0  0  0  0  0  0
    2.2080    0.4790   -0.4400 O   0  0  0  0  0  0  0  0  0  0  0  0
   -4.0670   -3.2860    0.4400 S   0  0  0  0  0  0  0  0  0  0  0  0
    4.8340   -1.2930   -0.6140 H   0  0  0  0  0  0  0  0  0  0  0  0
    4.3550   -0.0560   -1.8550 H   0  0  0  0  0  0  0  0  0  0  0  0
    6.8060    1.0800    1.5860 H   0  0  0  0  0  0  0  0  0  0  0  0
    6.4270   -0.6650    1.2520 H   0  0  0  0  0  0  0  0  0  0  0  0
   -3.7570   -0.0320    1.4980 H   0  0  0  0  0  0  0  0  0  0  0  0
    3.4800   -0.2120    1.1180 H   0  0  0  0  0  0  0  0  0  0  0  0
    4.0650    2.3330   -0.5610 H   0  0  0  0  0  0  0  0  0  0  0  0
    4.4270    2.0480    1.1970 H   0  0  0  0  0  0  0  0  0  0  0  0
    6.6620    1.1530   -2.0400 H   0  0  0  0  0  0  0  0  0  0  0  0
    6.9690    2.3450   -0.7050 H   0  0  0  0  0  0  0  0  0  0  0  0
   -6.7070    1.2720    1.1940 H   0  0  0  0  0  0  0  0  0  0  0  0
   -7.4840    0.5720   -0.2640 H   0  0  0  0  0  0  0  0  0  0  0  0
   -3.5560   -1.9420   -1.4910 H   0  0  0  0  0  0  0  0  0  0  0  0
   -8.7010    2.5910   -0.2130 H   0  0  0  0  0  0  0  0  0  0  0  0
   -7.4100    3.4550    0.6730 H   0  0  0  0  0  0  0  0  0  0  0  0
   -5.6520   -0.8710    0.4510 H   0  0  0  0  0  0  0  0  0  0  0  0
   -4.2960    0.4480   -1.9440 H   0  0  0  0  0  0  0  0  0  0  0  0
   -5.9830   -0.1190   -1.9060 H   0  0  0  0  0  0  0  0  0  0  0  0
   -4.8040    1.9720   -0.0080 H   0  0  0  0  0  0  0  0  0  0  0  0
   -1.0600   -0.3980    1.5130 H   0  0  0  0  0  0  0  0  0  0  0  0
   -1.6580    2.4790    0.6930 H   0  0  0  0  0  0  0  0  0  0  0  0
   -2.4570    1.6240    2.0340 H   0  0  0  0  0  0  0  0  0  0  0  0
    0.5560    2.0420    1.7960 H   0  0  0  0  0  0  0  0  0  0  0  0
   -1.5190    3.4580    3.5300 H   0  0  0  0  0  0  0  0  0  0  0  0
    0.2430    3.6980    3.6150 H   0  0  0  0  0  0  0  0  0  0  0  0
   -0.6520    4.1780    2.1530 H   0  0  0  0  0  0  0  0  0  0  0  0
   -1.2140    1.0370    4.0700 H   0  0  0  0  0  0  0  0  0  0  0  0
   -0.1310    0.0330    3.0780 H   0  0  0  0  0  0  0  0  0  0  0  0
    0.5470    1.2780    4.1550 H   0  0  0  0  0  0  0  0  0  0  0  0
   -0.2310    0.6920   -1.0660 H   0  0  0  0  0  0  0  0  0  0  0  0
   -7.5000    3.9330   -1.9420 H   0  0  0  0  0  0  0  0  0  0  0  0
   -5.7800   -1.9350   -2.3630 H   0  0  0  0  0  0  0  0  0  0  0  0
   -2.8950   -2.6850    1.2030 O   0  0  0  0  0  0  0  0  0  0  0  0
   -5.1200   -3.3300    1.3930 O   0  0  0  0  0  0  0  0  0  0  0  0
   -3.5410   -4.4780   -0.1270 O   0  0  0  0  0  0  0  0  0  0  0  0
   -2.5830   -3.2300    1.9390 H   0  0  0  0  0  0  0  0  0  0  0  0
    9.0060   -0.4510   -0.6020 S   0  0  0  0  0  0  0  0  0  0  0  0
    9.6900    0.4300   -1.4830 O   0  0  0  0  0  0  0  0  0  0  0  0
    9.5350   -0.7640    0.6790 O   0  0  0  0  0  0  0  0  0  0  0  0
    8.5110   -1.9640   -1.4730 C   0  0  0  0  0  0  0  0  0  0  0  0
    7.9740   -1.7000   -2.3840 H   0  0  0  0  0  0  0  0  0  0  0  0
    9.3980   -2.5430   -1.7290 H   0  0  0  0  0  0  0  0  0  0  0  0
    7.8630   -2.5590   -0.8290 H   0  0  0  0  0  0  0  0  0  0  0  0
  2 24  1  0  0  0  0
  2  6  1  0  0  0  0
  7 24  1  0  0  0  0
 14 26  2  0  0  0  0
  6  7  1  0  0  0  0
  5  6  1  0  0  0  0
  1  6  1  0  0  0  0
  4  5  1  0  0  0  0
 14 23  1  0  0  0  0
 13 14  1  0  0  0  0
  1  4  1  0  0  0  0
  4 29  1  0  0  0  0
 10 23  1  0  0  0  0
 15 25  2  0  0  0  0
 12 13  1  0  0  0  0
  8 13  1  0  0  0  0
 15 29  1  0  0  0  0
 15 22  1  0  0  0  0
  8 10  1  0  0  0  0
 11 12  1  0  0  0  0
 18 19  1  0  0  0  0
 16 22  1  0  0  0  0
  9 30  1  0  0  0  0
 16 21  1  0  0  0  0
 16 17  1  0  0  0  0
  3 11  1  0  0  0  0
  3 21  1  0  0  0  0
  9 11  1  0  0  0  0
 21 28  2  0  0  0  0
 17 18  1  0  0  0  0
 18 20  1  0  0  0  0
  9 27  1  0  0  0  0
  1 31  1  0  0  0  0
  1 32  1  0  0  0  0
  2 33  1  0  0  0  0
  2 34  1  0  0  0  0
  3 35  1  0  0  0  0
  4 36  1  0  0  0  0
  5 37  1  0  0  0  0
  5 38  1  0  0  0  0
  7 39  1  0  0  0  0
  7 40  1  0  0  0  0
  8 41  1  0  0  0  0
  8 42  1  0  0  0  0
  9 43  1  0  0  0  0
 10 44  1  0  0  0  0
 10 45  1  0  0  0  0
 11 46  1  0  0  0  0
 12 47  1  0  0  0  0
 12 48  1  0  0  0  0
 13 49  1  0  0  0  0
 16 50  1  0  0  0  0
 17 51  1  0  0  0  0
 17 52  1  0  0  0  0
 18 53  1  0  0  0  0
 19 54  1  0  0  0  0
 19 55  1  0  0  0  0
 19 56  1  0  0  0  0
 20 57  1  0  0  0  0
 20 58  1  0  0  0  0
 20 59  1  0  0  0  0
 22 60  1  0  0  0  0
 23 61  1  0  0  0  0
 27 62  1  0  0  0  0
 30 63  1  0  0  0  0
 30 64  2  0  0  0  0
 30 65  2  0  0  0  0
 63 66  1  0  0  0  0
 24 67  1  0  0  0  0
 67 68  2  0  0  0  0
 67 69  2  0  0  0  0
 67 70  1  0  0  0  0
 70 71  1  0  0  0  0
 70 72  1  0  0  0  0
 70 73  1  0  0  0  0
M  END
> <OPENEYE_ISO_SMILES>
CC(C)C[C@@H](C(=O)N[C@@H](C[C@@H]1CCNC1=O)[C@H](O)S(=O)(=O)O)NC(=O)OC2CC3(C2)CN(C3)S(=O)(=O)C

> <OPENEYE_INCHI>
InChI=1S/C21H36N4O10S2/c1-12(2)6-15(24-20(29)35-14-8-21(9-14)10-25(11-21)36(3,30)31)18(27)23-16(19(28)37(32,33)34)7-13-4-5-22-17(13)26/h12-16,19,28H,4-11H2,1-3H3,(H,22,26)(H,23,27)(H,24,29)(H,32,33,34)/t13-,15-,16-,19+/m0/s1

> <OPENEYE_INCHIKEY>
MQSKUPXMBXNALP-QBWPOKONSA-N

> <FORMULA>
C21H36N4O10S2

$$$$
