ET6
  -OEChem-02242320023D

 73 75  0     1  0  0  0  0  0999 V2000
    5.0420    2.0480   -0.6240 C   0  0  0  0  0  0  0  0  0  0  0  0
    7.2070    0.6490   -1.2990 C   0  0  0  0  0  0  0  0  0  0  0  0
   -3.1210    0.0440   -0.1790 N   0  0  0  0  0  0  0  0  0  0  0  0
    3.9200    1.1530   -0.0660 C   0  0  0  0  0  0  0  0  0  0  0  0
    4.7570   -0.0560   -0.5220 C   0  0  0  0  0  0  0  0  0  0  0  0
    5.9770    0.8580   -0.4150 C   0  0  0  0  0  0  0  0  0  0  0  0
    6.9180    0.7890    0.7890 C   0  0  0  0  0  0  0  0  0  0  0  0
   -3.6470   -3.5550   -0.9180 C   0  0  0  0  0  0  0  0  0  0  0  0
   -5.0550    0.5000   -1.6040 C   0  0  1  0  0  0  0  0  0  0  0  0
   -3.6760   -4.9850   -0.3330 C   0  0  0  0  0  0  0  0  0  0  0  0
   -4.1460   -0.5820   -1.0170 C   0  0  2  0  0  0  0  0  0  0  0  0
   -4.9810   -1.5430   -0.1680 C   0  0  0  0  0  0  0  0  0  0  0  0
   -4.1030   -2.7090    0.2940 C   0  0  1  0  0  0  0  0  0  0  0  0
   -4.9060   -3.6740    1.1380 C   0  0  0  0  0  0  0  0  0  0  0  0
    1.5350    1.0830   -0.0680 C   0  0  0  0  0  0  0  0  0  0  0  0
   -0.8940    1.0790    0.1260 C   0  0  1  0  0  0  0  0  0  0  0  0
   -1.2800    2.4560    0.6690 C   0  0  0  0  0  0  0  0  0  0  0  0
   -2.4300    2.3060    1.6680 C   0  0  0  0  0  0  0  0  0  0  0  0
   -1.9330    1.5620    2.9100 C   0  0  0  0  0  0  0  0  0  0  0  0
   -2.9380    3.6910    2.0720 C   0  0  0  0  0  0  0  0  0  0  0  0
   -2.0070    0.5520   -0.7440 C   0  0  0  0  0  0  0  0  0  0  0  0
    0.3320    1.1930   -0.6670 N   0  0  0  0  0  0  0  0  0  0  0  0
   -4.6510   -4.9400    0.7620 N   0  0  0  0  0  0  0  0  0  0  0  0
    7.8270    0.0410   -0.1040 N   0  0  0  0  0  0  0  0  0  0  0  0
    1.6020    0.7980    1.1110 O   0  0  0  0  0  0  0  0  0  0  0  0
   -5.6680   -3.3520    2.0260 O   0  0  0  0  0  0  0  0  0  0  0  0
   -6.1240   -0.1170   -2.3260 O   0  0  0  0  0  0  0  0  0  0  0  0
   -1.9010    0.5850   -1.9510 O   0  0  0  0  0  0  0  0  0  0  0  0
    2.6610    1.2880   -0.7760 O   0  0  0  0  0  0  0  0  0  0  0  0
   -5.7360    1.5120   -0.2620 S   0  0  0  0  0  0  0  0  0  0  0  0
    4.9050    2.3190   -1.6720 H   0  0  0  0  0  0  0  0  0  0  0  0
    5.2730    2.9050    0.0080 H   0  0  0  0  0  0  0  0  0  0  0  0
    7.0470   -0.0530   -2.1180 H   0  0  0  0  0  0  0  0  0  0  0  0
    7.6810    1.5760   -1.6200 H   0  0  0  0  0  0  0  0  0  0  0  0
   -3.2430    0.0940    0.7820 H   0  0  0  0  0  0  0  0  0  0  0  0
    3.8060    1.2210    1.0160 H   0  0  0  0  0  0  0  0  0  0  0  0
    4.7630   -0.8790    0.1930 H   0  0  0  0  0  0  0  0  0  0  0  0
    4.5400   -0.3800   -1.5400 H   0  0  0  0  0  0  0  0  0  0  0  0
    7.3070    1.7590    1.1000 H   0  0  0  0  0  0  0  0  0  0  0  0
    6.5300    0.1980    1.6180 H   0  0  0  0  0  0  0  0  0  0  0  0
   -2.6380   -3.2810   -1.2270 H   0  0  0  0  0  0  0  0  0  0  0  0
   -4.3470   -3.4580   -1.7470 H   0  0  0  0  0  0  0  0  0  0  0  0
   -4.4780    1.1320   -2.2790 H   0  0  0  0  0  0  0  0  0  0  0  0
   -3.9960   -5.6970   -1.0940 H   0  0  0  0  0  0  0  0  0  0  0  0
   -2.6910   -5.2570    0.0480 H   0  0  0  0  0  0  0  0  0  0  0  0
   -3.6680   -1.1330   -1.8260 H   0  0  0  0  0  0  0  0  0  0  0  0
   -5.3700   -1.0150    0.7020 H   0  0  0  0  0  0  0  0  0  0  0  0
   -5.8100   -1.9260   -0.7620 H   0  0  0  0  0  0  0  0  0  0  0  0
   -3.2410   -2.3400    0.8480 H   0  0  0  0  0  0  0  0  0  0  0  0
   -0.7270    0.3940    0.9570 H   0  0  0  0  0  0  0  0  0  0  0  0
   -0.4210    2.9030    1.1690 H   0  0  0  0  0  0  0  0  0  0  0  0
   -1.5950    3.0960   -0.1540 H   0  0  0  0  0  0  0  0  0  0  0  0
   -3.2400    1.7420    1.2070 H   0  0  0  0  0  0  0  0  0  0  0  0
   -2.7670    1.3980    3.5930 H   0  0  0  0  0  0  0  0  0  0  0  0
   -1.5120    0.6020    2.6140 H   0  0  0  0  0  0  0  0  0  0  0  0
   -1.1670    2.1570    3.4070 H   0  0  0  0  0  0  0  0  0  0  0  0
   -3.2920    4.2210    1.1880 H   0  0  0  0  0  0  0  0  0  0  0  0
   -3.7570    3.5850    2.7840 H   0  0  0  0  0  0  0  0  0  0  0  0
   -2.1270    4.2550    2.5340 H   0  0  0  0  0  0  0  0  0  0  0  0
    0.2790    1.3480   -1.6230 H   0  0  0  0  0  0  0  0  0  0  0  0
   -5.0600   -5.7230    1.1640 H   0  0  0  0  0  0  0  0  0  0  0  0
   -6.6800   -0.6950   -1.7860 H   0  0  0  0  0  0  0  0  0  0  0  0
   -6.7100    2.4550   -0.9540 O   0  0  0  0  0  0  0  0  0  0  0  0
   -6.5570    0.7240    0.5890 O   0  0  0  0  0  0  0  0  0  0  0  0
   -4.7370    2.3690    0.2720 O   0  0  0  0  0  0  0  0  0  0  0  0
    9.0530   -1.0460    0.1390 S   0  0  0  0  0  0  0  0  0  0  0  0
    8.2310   -2.6640    0.1340 C   0  0  0  0  0  0  0  0  0  0  0  0
    9.8800   -0.9040   -1.0080 O   0  0  0  0  0  0  0  0  0  0  0  0
    9.5420   -0.7390    1.4370 O   0  0  0  0  0  0  0  0  0  0  0  0
   -7.1580    3.0670   -0.3540 H   0  0  0  0  0  0  0  0  0  0  0  0
    7.7350   -2.8160   -0.8240 H   0  0  0  0  0  0  0  0  0  0  0  0
    8.9720   -3.4480    0.2890 H   0  0  0  0  0  0  0  0  0  0  0  0
    7.4920   -2.6980    0.9350 H   0  0  0  0  0  0  0  0  0  0  0  0
  7 24  1  0  0  0  0
  6  7  1  0  0  0  0
  2 24  1  0  0  0  0
 14 26  2  0  0  0  0
  2  6  1  0  0  0  0
  1  6  1  0  0  0  0
  5  6  1  0  0  0  0
  1  4  1  0  0  0  0
 14 23  1  0  0  0  0
 13 14  1  0  0  0  0
 10 23  1  0  0  0  0
  4  5  1  0  0  0  0
  4 29  1  0  0  0  0
 15 25  2  0  0  0  0
 12 13  1  0  0  0  0
  8 13  1  0  0  0  0
 15 29  1  0  0  0  0
 15 22  1  0  0  0  0
  8 10  1  0  0  0  0
 11 12  1  0  0  0  0
 16 22  1  0  0  0  0
  9 30  1  0  0  0  0
 18 19  1  0  0  0  0
  3 11  1  0  0  0  0
  3 21  1  0  0  0  0
 16 21  1  0  0  0  0
 16 17  1  0  0  0  0
  9 11  1  0  0  0  0
 21 28  2  0  0  0  0
 17 18  1  0  0  0  0
 18 20  1  0  0  0  0
  9 27  1  0  0  0  0
  1 31  1  0  0  0  0
  1 32  1  0  0  0  0
  2 33  1  0  0  0  0
  2 34  1  0  0  0  0
  3 35  1  0  0  0  0
  4 36  1  0  0  0  0
  5 37  1  0  0  0  0
  5 38  1  0  0  0  0
  7 39  1  0  0  0  0
  7 40  1  0  0  0  0
  8 41  1  0  0  0  0
  8 42  1  0  0  0  0
  9 43  1  0  0  0  0
 10 44  1  0  0  0  0
 10 45  1  0  0  0  0
 11 46  1  0  0  0  0
 12 47  1  0  0  0  0
 12 48  1  0  0  0  0
 13 49  1  0  0  0  0
 16 50  1  0  0  0  0
 17 51  1  0  0  0  0
 17 52  1  0  0  0  0
 18 53  1  0  0  0  0
 19 54  1  0  0  0  0
 19 55  1  0  0  0  0
 19 56  1  0  0  0  0
 20 57  1  0  0  0  0
 20 58  1  0  0  0  0
 20 59  1  0  0  0  0
 22 60  1  0  0  0  0
 23 61  1  0  0  0  0
 27 62  1  0  0  0  0
 30 63  1  0  0  0  0
 30 64  2  0  0  0  0
 30 65  2  0  0  0  0
 24 66  1  0  0  0  0
 66 67  1  0  0  0  0
 66 68  2  0  0  0  0
 66 69  2  0  0  0  0
 63 70  1  0  0  0  0
 67 71  1  0  0  0  0
 67 72  1  0  0  0  0
 67 73  1  0  0  0  0
M  END
> <OPENEYE_ISO_SMILES>
CC(C)C[C@@H](C(=O)N[C@@H](C[C@@H]1CCNC1=O)[C@@H](O)S(=O)(=O)O)NC(=O)OC2CC3(C2)CN(C3)S(=O)(=O)C

> <OPENEYE_INCHI>
InChI=1S/C21H36N4O10S2/c1-12(2)6-15(24-20(29)35-14-8-21(9-14)10-25(11-21)36(3,30)31)18(27)23-16(19(28)37(32,33)34)7-13-4-5-22-17(13)26/h12-16,19,28H,4-11H2,1-3H3,(H,22,26)(H,23,27)(H,24,29)(H,32,33,34)/t13-,15-,16-,19-/m0/s1

> <OPENEYE_INCHIKEY>
MQSKUPXMBXNALP-FJXLLPKBSA-N

> <FORMULA>
C21H36N4O10S2

$$$$
