UGP
  -OEChem-02242320043D

 32 33  0     0  0  0  0  0  0999 V2000
    1.6620    0.4280    0.9980 N   0  0  0  0  0  0  0  0  0  0  0  0
    2.6370   -1.0690   -0.6350 C   0  0  0  0  0  0  0  0  0  0  0  0
    2.7360    0.0460    0.1860 C   0  0  0  0  0  0  0  0  0  0  0  0
    0.4050    0.0760    0.6610 C   0  0  0  0  0  0  0  0  0  0  0  0
   -0.7370    0.3750    1.5980 C   0  0  0  0  0  0  0  0  0  0  0  0
   -2.0260   -0.1170    0.9910 C   0  0  0  0  0  0  0  0  0  0  0  0
   -3.6420   -1.8660    0.6910 C   0  0  0  0  0  0  0  0  0  0  0  0
   -4.7450    1.1260   -1.2100 C   0  0  0  0  0  0  0  0  0  0  0  0
   -5.3620    1.8090   -1.8750 N   0  0  0  0  0  0  0  0  0  0  0  0
   -3.9670    0.2630   -0.3720 C   0  0  0  0  0  0  0  0  0  0  0  0
   -4.3960   -1.0410   -0.1170 C   0  0  0  0  0  0  0  0  0  0  0  0
   -2.4600   -1.4060    1.2440 C   0  0  0  0  0  0  0  0  0  0  0  0
   -2.7730    0.7210    0.1890 C   0  0  0  0  0  0  0  0  0  0  0  0
    0.1930   -0.4830   -0.3940 O   0  0  0  0  0  0  0  0  0  0  0  0
    3.9200    0.7790    0.1900 C   0  0  0  0  0  0  0  0  0  0  0  0
    4.0720    1.9960    1.0660 C   0  0  0  0  0  0  0  0  0  0  0  0
    3.6490   -1.4350   -1.3970 N   0  0  0  0  0  0  0  0  0  0  0  0
    4.7850   -0.7650   -1.4120 C   0  0  0  0  0  0  0  0  0  0  0  0
    4.9550    0.3620   -0.6300 C   0  0  0  0  0  0  0  0  0  0  0  0
    1.8220    0.9430    1.8040 H   0  0  0  0  0  0  0  0  0  0  0  0
    1.7240   -1.6460   -0.6460 H   0  0  0  0  0  0  0  0  0  0  0  0
   -0.5690   -0.1280    2.5500 H   0  0  0  0  0  0  0  0  0  0  0  0
   -0.8000    1.4510    1.7610 H   0  0  0  0  0  0  0  0  0  0  0  0
   -3.9750   -2.8730    0.8920 H   0  0  0  0  0  0  0  0  0  0  0  0
   -5.3160   -1.4030   -0.5520 H   0  0  0  0  0  0  0  0  0  0  0  0
   -1.8740   -2.0560    1.8760 H   0  0  0  0  0  0  0  0  0  0  0  0
   -2.4360    1.7290   -0.0040 H   0  0  0  0  0  0  0  0  0  0  0  0
    4.4720    1.6990    2.0360 H   0  0  0  0  0  0  0  0  0  0  0  0
    4.7540    2.7020    0.5930 H   0  0  0  0  0  0  0  0  0  0  0  0
    3.0990    2.4680    1.2040 H   0  0  0  0  0  0  0  0  0  0  0  0
    5.5900   -1.0970   -2.0510 H   0  0  0  0  0  0  0  0  0  0  0  0
    5.8890    0.9040   -0.6500 H   0  0  0  0  0  0  0  0  0  0  0  0
 17 18  2  0  0  0  0
  2 17  1  0  0  0  0
 18 19  1  0  0  0  0
  2  3  2  0  0  0  0
 15 19  2  0  0  0  0
  3 15  1  0  0  0  0
  1  3  1  0  0  0  0
 15 16  1  0  0  0  0
  8  9  3  0  0  0  0
  1  4  1  0  0  0  0
  4 14  2  0  0  0  0
  8 10  1  0  0  0  0
  4  5  1  0  0  0  0
 10 13  2  0  0  0  0
  6 13  1  0  0  0  0
 10 11  1  0  0  0  0
  5  6  1  0  0  0  0
  6 12  2  0  0  0  0
  7 11  2  0  0  0  0
  7 12  1  0  0  0  0
  1 20  1  0  0  0  0
  2 21  1  0  0  0  0
  5 22  1  0  0  0  0
  5 23  1  0  0  0  0
  7 24  1  0  0  0  0
 11 25  1  0  0  0  0
 12 26  1  0  0  0  0
 13 27  1  0  0  0  0
 16 28  1  0  0  0  0
 16 29  1  0  0  0  0
 16 30  1  0  0  0  0
 18 31  1  0  0  0  0
 19 32  1  0  0  0  0
M  END
> <OPENEYE_ISO_SMILES>
Cc1ccncc1NC(=O)Cc2cccc(c2)C#N

> <OPENEYE_INCHI>
InChI=1S/C15H13N3O/c1-11-5-6-17-10-14(11)18-15(19)8-12-3-2-4-13(7-12)9-16/h2-7,10H,8H2,1H3,(H,18,19)

> <OPENEYE_INCHIKEY>
OTFRLGRHXMKEAF-UHFFFAOYSA-N

> <FORMULA>
C15H13N3O

$$$$
