TLA
  -OEChem-02242320043D

 16 15  0     1  0  0  0  0  0999 V2000
    0.6780    0.3900   -2.6440 O   0  0  0  0  0  0  0  0  0  0  0  0
   -1.2340   -0.6740   -2.3420 O   0  0  0  0  0  0  0  0  0  0  0  0
   -0.2270    0.0960   -1.9010 C   0  0  0  0  0  0  0  0  0  0  0  0
   -0.2280    0.5960   -0.4790 C   0  0  2  0  0  0  0  0  0  0  0  0
    0.9380    1.3890   -0.2530 O   0  0  0  0  0  0  0  0  0  0  0  0
   -0.2270   -0.5960    0.4790 C   0  0  1  0  0  0  0  0  0  0  0  0
    0.9390   -1.3890    0.2530 O   0  0  0  0  0  0  0  0  0  0  0  0
   -0.2270   -0.0970    1.9010 C   0  0  0  0  0  0  0  0  0  0  0  0
    0.6780   -0.3900    2.6440 O   0  0  0  0  0  0  0  0  0  0  0  0
   -1.2340    0.6730    2.3420 O   0  0  0  0  0  0  0  0  0  0  0  0
   -1.2340   -0.9940   -3.2540 H   0  0  0  0  0  0  0  0  0  0  0  0
   -1.1180    1.2000   -0.3060 H   0  0  0  0  0  0  0  0  0  0  0  0
    1.7010    0.8180   -0.4160 H   0  0  0  0  0  0  0  0  0  0  0  0
   -1.1170   -1.2010    0.3060 H   0  0  0  0  0  0  0  0  0  0  0  0
    1.7020   -0.8170    0.4160 H   0  0  0  0  0  0  0  0  0  0  0  0
   -1.2340    0.9930    3.2540 H   0  0  0  0  0  0  0  0  0  0  0  0
  1  3  2  0  0  0  0
  2  3  1  0  0  0  0
  2 11  1  0  0  0  0
  3  4  1  0  0  0  0
  4  5  1  0  0  0  0
  4  6  1  0  0  0  0
  4 12  1  0  0  0  0
  5 13  1  0  0  0  0
  6  7  1  0  0  0  0
  6  8  1  0  0  0  0
  6 14  1  0  0  0  0
  7 15  1  0  0  0  0
  8  9  2  0  0  0  0
  8 10  1  0  0  0  0
 10 16  1  0  0  0  0
M  END
> <OPENEYE_ISO_SMILES>
[C@@H]([C@H](C(=O)O)O)(C(=O)O)O

> <OPENEYE_INCHI>
InChI=1S/C4H6O6/c5-1(3(7)8)2(6)4(9)10/h1-2,5-6H,(H,7,8)(H,9,10)/t1-,2-/m1/s1

> <OPENEYE_INCHIKEY>
FEWJPZIEWOKRBE-JCYAYHJZSA-N

> <FORMULA>
C4H6O6

$$$$
