OHB
  -OEChem-02242320033D

 17 17  0     0  0  0  0  0  0999 V2000
   -2.2530   -0.8060    0.0150 O   0  0  0  0  0  0  0  0  0  0  0  0
   -1.6530    0.2520    0.0040 C   0  0  0  0  0  0  0  0  0  0  0  0
   -2.3350    1.4140   -0.0020 N   0  0  0  0  0  0  0  0  0  0  0  0
   -0.1770    0.2620    0.0040 C   0  0  0  0  0  0  0  0  0  0  0  0
    0.5360   -0.9440    0.0160 C   0  0  0  0  0  0  0  0  0  0  0  0
   -0.1270   -2.1270    0.0280 O   0  0  0  0  0  0  0  0  0  0  0  0
    1.9230   -0.9220    0.0160 C   0  0  0  0  0  0  0  0  0  0  0  0
    2.5960    0.2830    0.0030 C   0  0  0  0  0  0  0  0  0  0  0  0
    1.8940    1.4780   -0.0090 C   0  0  0  0  0  0  0  0  0  0  0  0
    0.5160    1.4750   -0.0140 C   0  0  0  0  0  0  0  0  0  0  0  0
   -3.3050    1.4070    0.0020 H   0  0  0  0  0  0  0  0  0  0  0  0
   -1.8560    2.2570   -0.0110 H   0  0  0  0  0  0  0  0  0  0  0  0
   -0.3190   -2.4800   -0.8520 H   0  0  0  0  0  0  0  0  0  0  0  0
    2.4770   -1.8490    0.0260 H   0  0  0  0  0  0  0  0  0  0  0  0
    3.6760    0.2950    0.0030 H   0  0  0  0  0  0  0  0  0  0  0  0
    2.4300    2.4160   -0.0190 H   0  0  0  0  0  0  0  0  0  0  0  0
   -0.0260    2.4080   -0.0280 H   0  0  0  0  0  0  0  0  0  0  0  0
  2  3  1  0  0  0  0
  1  2  2  0  0  0  0
  2  4  1  0  0  0  0
  5  6  1  0  0  0  0
  4  5  2  0  0  0  0
  4 10  1  0  0  0  0
  5  7  1  0  0  0  0
  9 10  2  0  0  0  0
  7  8  2  0  0  0  0
  8  9  1  0  0  0  0
  3 11  1  0  0  0  0
  3 12  1  0  0  0  0
  6 13  1  0  0  0  0
  7 14  1  0  0  0  0
  8 15  1  0  0  0  0
  9 16  1  0  0  0  0
 10 17  1  0  0  0  0
M  END
> <OPENEYE_ISO_SMILES>
c1ccc(c(c1)C(=O)N)O

> <OPENEYE_INCHI>
InChI=1S/C7H7NO2/c8-7(10)5-3-1-2-4-6(5)9/h1-4,9H,(H2,8,10)

> <OPENEYE_INCHIKEY>
SKZKKFZAGNVIMN-UHFFFAOYSA-N

> <FORMULA>
C7H7NO2

$$$$
