QO6
  -OEChem-02242320033D

 26 27  0     0  0  0  0  0  0999 V2000
   -2.8770   -1.0390    0.6330 O   0  0  0  0  0  0  0  0  0  0  0  0
   -3.0850    0.0530    0.1480 C   0  0  0  0  0  0  0  0  0  0  0  0
   -4.4780    0.6280    0.1540 C   0  0  0  0  0  0  0  0  0  0  0  0
   -2.0690    0.7550   -0.3920 N   0  0  0  0  0  0  0  0  0  0  0  0
   -0.7600    0.2690   -0.3070 C   0  0  0  0  0  0  0  0  0  0  0  0
    0.3010    1.1490   -0.1510 C   0  0  0  0  0  0  0  0  0  0  0  0
   -0.5180   -1.0970   -0.3730 C   0  0  0  0  0  0  0  0  0  0  0  0
    0.7750   -1.5710   -0.2890 C   0  0  0  0  0  0  0  0  0  0  0  0
    1.8340   -0.6910   -0.1380 C   0  0  0  0  0  0  0  0  0  0  0  0
    3.3200   -0.9570   -0.0220 C   0  0  0  0  0  0  0  0  0  0  0  0
    3.9190    0.3410    0.5580 C   0  0  0  0  0  0  0  0  0  0  0  0
    2.9070    1.4100    0.0920 C   0  0  0  0  0  0  0  0  0  0  0  0
    1.5960    0.6690   -0.0670 C   0  0  0  0  0  0  0  0  0  0  0  0
   -5.1590   -0.0760    0.6330 H   0  0  0  0  0  0  0  0  0  0  0  0
   -4.4810    1.5680    0.7050 H   0  0  0  0  0  0  0  0  0  0  0  0
   -4.8020    0.8070   -0.8710 H   0  0  0  0  0  0  0  0  0  0  0  0
   -2.2450    1.5970   -0.8400 H   0  0  0  0  0  0  0  0  0  0  0  0
    0.1160    2.2120   -0.0960 H   0  0  0  0  0  0  0  0  0  0  0  0
   -1.3410   -1.7870   -0.4900 H   0  0  0  0  0  0  0  0  0  0  0  0
    0.9620   -2.6340   -0.3400 H   0  0  0  0  0  0  0  0  0  0  0  0
    3.5030   -1.7930    0.6530 H   0  0  0  0  0  0  0  0  0  0  0  0
    3.7440   -1.1640   -1.0050 H   0  0  0  0  0  0  0  0  0  0  0  0
    3.9620    0.2960    1.6460 H   0  0  0  0  0  0  0  0  0  0  0  0
    4.9080    0.5320    0.1400 H   0  0  0  0  0  0  0  0  0  0  0  0
    2.8090    2.1910    0.8460 H   0  0  0  0  0  0  0  0  0  0  0  0
    3.2220    1.8400   -0.8580 H   0  0  0  0  0  0  0  0  0  0  0  0
  2  3  1  0  0  0  0
  1  2  2  0  0  0  0
  2  4  1  0  0  0  0
  4  5  1  0  0  0  0
  5  7  2  0  0  0  0
  5  6  1  0  0  0  0
  7  8  1  0  0  0  0
  6 13  2  0  0  0  0
  8  9  2  0  0  0  0
  9 13  1  0  0  0  0
 12 13  1  0  0  0  0
  9 10  1  0  0  0  0
 11 12  1  0  0  0  0
 10 11  1  0  0  0  0
  3 14  1  0  0  0  0
  3 15  1  0  0  0  0
  3 16  1  0  0  0  0
  4 17  1  0  0  0  0
  6 18  1  0  0  0  0
  7 19  1  0  0  0  0
  8 20  1  0  0  0  0
 10 21  1  0  0  0  0
 10 22  1  0  0  0  0
 11 23  1  0  0  0  0
 11 24  1  0  0  0  0
 12 25  1  0  0  0  0
 12 26  1  0  0  0  0
M  END
> <OPENEYE_ISO_SMILES>
CC(=O)Nc1ccc2c(c1)CCC2

> <OPENEYE_INCHI>
InChI=1S/C11H13NO/c1-8(13)12-11-6-5-9-3-2-4-10(9)7-11/h5-7H,2-4H2,1H3,(H,12,13)

> <OPENEYE_INCHIKEY>
WOYOJAPRKMBKEU-UHFFFAOYSA-N

> <FORMULA>
C11H13NO

$$$$
