WVY
  -OEChem-02242320043D

 42 44  0     1  0  0  0  0  0999 V2000
    7.2950   -0.2530    1.3300 C   0  0  0  0  0  0  0  0  0  0  0  0
   -4.5190    0.6700   -0.2030 C   0  0  2  0  0  0  0  0  0  0  0  0
   -7.0980   -0.1940    1.0170 C   0  0  0  0  0  0  0  0  0  0  0  0
   -4.9380   -0.7610   -0.0300 C   0  0  0  0  0  0  0  0  0  0  0  0
   -0.8940    0.0920   -0.5120 C   0  0  0  0  0  0  0  0  0  0  0  0
    0.0310   -0.6710   -1.4250 C   0  0  0  0  0  0  0  0  0  0  0  0
    1.4560   -0.4760   -0.9740 C   0  0  0  0  0  0  0  0  0  0  0  0
    2.0150   -1.3480   -0.0580 C   0  0  0  0  0  0  0  0  0  0  0  0
    3.3200   -1.1720    0.3580 C   0  0  0  0  0  0  0  0  0  0  0  0
    4.0710   -0.1180   -0.1450 C   0  0  0  0  0  0  0  0  0  0  0  0
    3.5070    0.7570   -1.0640 C   0  0  0  0  0  0  0  0  0  0  0  0
    2.2030    0.5720   -1.4800 C   0  0  0  0  0  0  0  0  0  0  0  0
    6.2330    1.0450   -0.1330 C   0  0  0  0  0  0  0  0  0  0  0  0
    7.4140    0.8700    0.5050 C   0  0  0  0  0  0  0  0  0  0  0  0
   -3.0500    0.8220    0.1950 C   0  0  0  0  0  0  0  0  0  0  0  0
   -5.3810    1.5760    0.6810 C   0  0  0  0  0  0  0  0  0  0  0  0
   -6.8530    1.2090    0.4600 C   0  0  0  0  0  0  0  0  0  0  0  0
    5.3960    0.0640    0.2750 N   0  0  0  0  0  0  0  0  0  0  0  0
    6.0870   -0.7370    1.1940 N   0  0  0  0  0  0  0  0  0  0  0  0
   -6.1060   -1.1280    0.5000 N   0  0  0  0  0  0  0  0  0  0  0  0
   -0.4430    0.7280    0.4100 O   0  0  0  0  0  0  0  0  0  0  0  0
   -2.2190    0.0640   -0.7240 O   0  0  0  0  0  0  0  0  0  0  0  0
   -4.1740   -1.6310   -0.3910 O   0  0  0  0  0  0  0  0  0  0  0  0
    8.0690   -0.6550    1.9670 H   0  0  0  0  0  0  0  0  0  0  0  0
   -4.6420    0.9600   -1.2460 H   0  0  0  0  0  0  0  0  0  0  0  0
   -7.0340   -0.1660    2.1050 H   0  0  0  0  0  0  0  0  0  0  0  0
   -8.0920   -0.5300    0.7230 H   0  0  0  0  0  0  0  0  0  0  0  0
   -0.2180   -1.7310   -1.3920 H   0  0  0  0  0  0  0  0  0  0  0  0
   -0.0800   -0.3030   -2.4450 H   0  0  0  0  0  0  0  0  0  0  0  0
    1.4300   -2.1680    0.3330 H   0  0  0  0  0  0  0  0  0  0  0  0
    3.7570   -1.8530    1.0730 H   0  0  0  0  0  0  0  0  0  0  0  0
    4.0880    1.5770   -1.4570 H   0  0  0  0  0  0  0  0  0  0  0  0
    1.7630    1.2510   -2.1960 H   0  0  0  0  0  0  0  0  0  0  0  0
    6.0010    1.8270   -0.8410 H   0  0  0  0  0  0  0  0  0  0  0  0
    8.2920    1.4890    0.3960 H   0  0  0  0  0  0  0  0  0  0  0  0
   -2.7690    1.8740    0.1550 H   0  0  0  0  0  0  0  0  0  0  0  0
   -2.9070    0.4460    1.2080 H   0  0  0  0  0  0  0  0  0  0  0  0
   -5.1180    1.4240    1.7280 H   0  0  0  0  0  0  0  0  0  0  0  0
   -5.2170    2.6180    0.4080 H   0  0  0  0  0  0  0  0  0  0  0  0
   -7.0780    1.2240   -0.6070 H   0  0  0  0  0  0  0  0  0  0  0  0
   -7.4900    1.9250    0.9790 H   0  0  0  0  0  0  0  0  0  0  0  0
   -6.3080   -2.0760    0.5430 H   0  0  0  0  0  0  0  0  0  0  0  0
  1 19  2  0  0  0  0
  1 14  1  0  0  0  0
 18 19  1  0  0  0  0
 13 14  2  0  0  0  0
 13 18  1  0  0  0  0
 10 18  1  0  0  0  0
  9 10  2  0  0  0  0
  8  9  1  0  0  0  0
 10 11  1  0  0  0  0
 11 12  2  0  0  0  0
  7  8  2  0  0  0  0
  7 12  1  0  0  0  0
  6  7  1  0  0  0  0
  5 21  2  0  0  0  0
  5  6  1  0  0  0  0
  5 22  1  0  0  0  0
 15 22  1  0  0  0  0
  2 15  1  0  0  0  0
  4 23  2  0  0  0  0
  2  4  1  0  0  0  0
  2 16  1  0  0  0  0
  4 20  1  0  0  0  0
 16 17  1  0  0  0  0
  3 20  1  0  0  0  0
  3 17  1  0  0  0  0
  1 24  1  0  0  0  0
  2 25  1  0  0  0  0
  3 26  1  0  0  0  0
  3 27  1  0  0  0  0
  6 28  1  0  0  0  0
  6 29  1  0  0  0  0
  8 30  1  0  0  0  0
  9 31  1  0  0  0  0
 11 32  1  0  0  0  0
 12 33  1  0  0  0  0
 13 34  1  0  0  0  0
 14 35  1  0  0  0  0
 15 36  1  0  0  0  0
 15 37  1  0  0  0  0
 16 38  1  0  0  0  0
 16 39  1  0  0  0  0
 17 40  1  0  0  0  0
 17 41  1  0  0  0  0
 20 42  1  0  0  0  0
M  END
> <OPENEYE_ISO_SMILES>
c1cnn(c1)c2ccc(cc2)CC(=O)OC[C@@H]3CCCNC3=O

> <OPENEYE_INCHI>
InChI=1S/C17H19N3O3/c21-16(23-12-14-3-1-8-18-17(14)22)11-13-4-6-15(7-5-13)20-10-2-9-19-20/h2,4-7,9-10,14H,1,3,8,11-12H2,(H,18,22)/t14-/m0/s1

> <OPENEYE_INCHIKEY>
BBSKBVDQKLCENN-AWEZNQCLSA-N

> <FORMULA>
C17H19N3O3

$$$$
