@<TRIPOS>MOLECULE
/home/pku/3cl/gett_pdb/7K0F/7K0F_mol2/ligand/7K0F_VR4.pdb
 39 41 0 0 0
SMALL
GASTEIGER

@<TRIPOS>ATOM
      1  C33       11.1690   26.1720   24.3790 C.3   401  VR4401      0.2368
      2  C34       11.4340   27.6310   24.5640 C.ar  401  VR4401      0.0213
      3  C36       10.8770   29.9410   24.1050 C.ar  401  VR4401     -0.0002
      4  C38       12.6870   29.4480   25.5750 C.ar  401  VR4401     -0.0002
      5  C02       11.3930   24.2030   25.6590 C.2   401  VR4401      0.4218
      6  C35       10.6480   28.5810   23.9260 C.ar  401  VR4401     -0.0007
      7  C37       11.9000   30.3800   24.9250 C.ar  401  VR4401     -0.0000
      8  C39       12.4530   28.0750   25.4000 C.ar  401  VR4401     -0.0007
      9  O32       11.6540   25.5370   25.5240 O.3   401  VR4401     -0.4285
     10  O01       10.6860   23.5860   24.8920 O.2   401  VR4401     -0.2245
     11  N03       11.9860   23.6830   26.7320 N.am  401  VR4401     -0.1611
     12  C04       12.0850   22.2550   26.8750 C.3   401  VR4401      0.1761
     13  C05       10.7680   21.8510   27.4310 C.2   401  VR4401      0.2614
     14  O27       10.2160   22.5800   28.2620 O.2   401  VR4401     -0.2715
     15  C28       13.1540   21.8630   27.8580 C.3   401  VR4401      0.0312
     16  C29       14.5530   22.0860   27.3700 C.3   401  VR4401      0.0022
     17  C30       14.9500   21.0320   26.3930 C.3   401  VR4401      0.0001
     18  C31       15.5450   22.1030   28.5740 C.3   401  VR4401      0.0001
     19  N06       10.1890   20.6700   27.0420 N.am  401  VR4401     -0.2026
     20  C07        9.0270   20.1390   27.6020 C.3   401  VR4401      0.1351
     21  C08        7.9390   19.8720   26.5270 C.3   401  VR4401      0.0340
     22  C09        7.3900   21.1480   25.9920 C.3   401  VR4401      0.0818
     23  C13        6.5920   21.9710   27.0210 C.3   401  VR4401      0.0326
     24  C12        5.3820   22.5750   26.2420 C.3   401  VR4401      0.1156
     25  N11        5.2600   21.7190   25.0650 N.am  401  VR4401     -0.2054
     26  C10        6.3670   20.9180   24.8890 C.2   401  VR4401      0.2410
     27  O14        6.4360   20.1230   23.9440 O.2   401  VR4401     -0.2734
     28  C15        9.4320   18.8530   28.3570 C.3   401  VR4401      0.2487
     29  O26       10.6000   19.1780   29.0790 O.3   401  VR4401     -0.2113
     30  C16        8.4460   18.3720   29.3650 C.2   401  VR4401      0.2739
     31  O25        7.3570   17.9730   29.0050 O.2   401  VR4401     -0.2705
     32  N17        8.8470   18.4690   30.7240 N.am  401  VR4401     -0.1984
     33  C18        8.0410   18.0990   31.8540 C.3   401  VR4401      0.1415
     34  C19        7.2830   19.2760   32.4450 C.ar  401  VR4401     -0.0006
     35  C20        7.4330   20.5470   31.8740 C.ar  401  VR4401     -0.0026
     36  C21        6.7590   21.6570   32.3700 C.ar  401  VR4401     -0.0003
     37  C22        5.8900   21.5260   33.4520 C.ar  401  VR4401     -0.0000
     38  C23        5.7110   20.2770   34.0180 C.ar  401  VR4401     -0.0003
     39  C24        6.4060   19.1700   33.5210 C.ar  401  VR4401     -0.0026
@<TRIPOS>BOND
     1     6     3   ar
     2     6     2   ar
     3    27    26    2
     4     3     7   ar
     5     1     2    1
     6     1     9    1
     7     2     8   ar
     8    26    25   am
     9    26    22    1
    10    10     5    2
    11     7     4   ar
    12    25    24    1
    13     8     4   ar
    14     9     5    1
    15     5    11   am
    16    22    21    1
    17    22    23    1
    18    24    23    1
    19    17    16    1
    20    21    20    1
    21    11    12    1
    22    12    13    1
    23    12    15    1
    24    19    13   am
    25    19    20    1
    26    16    15    1
    27    16    18    1
    28    13    14    2
    29    20    28    1
    30    28    29    1
    31    28    30    1
    32    31    30    2
    33    30    32   am
    34    32    33    1
    35    33    34    1
    36    35    36   ar
    37    35    34   ar
    38    36    37   ar
    39    34    39   ar
    40    37    38   ar
    41    39    38   ar
