IT3
  -OEChem-02242320023D

 70 71  0     1  0  0  0  0  0999 V2000
   -0.8170    1.3430    2.0710 C   0  0  0  0  0  0  0  0  0  0  0  0
    2.9280   -0.2870    0.1820 C   0  0  0  0  0  0  0  0  0  0  0  0
    6.5140   -0.4720   -0.6610 C   0  0  1  0  0  0  0  0  0  0  0  0
   -0.5730    0.2450    3.1080 C   0  0  0  0  0  0  0  0  0  0  0  0
   -1.0240    2.6810    2.7840 C   0  0  0  0  0  0  0  0  0  0  0  0
    7.2530   -1.7190   -1.1480 C   0  0  0  0  0  0  0  0  0  0  0  0
    9.0730    0.0340   -0.4680 C   0  0  0  0  0  0  0  0  0  0  0  0
   10.3080   -0.4070    0.3200 C   0  0  0  0  0  0  0  0  0  0  0  0
   11.5050    0.4590   -0.0800 C   0  0  0  0  0  0  0  0  0  0  0  0
    2.8860   -0.7880    1.2890 O   0  0  0  0  0  0  0  0  0  0  0  0
   -1.8670   -0.1750   -0.1530 N   0  0  0  0  0  0  0  0  0  0  0  0
   -3.2170    1.1150   -1.7320 C   0  0  1  0  0  0  0  0  0  0  0  0
   -2.9910   -0.2540   -1.0890 C   0  0  2  0  0  0  0  0  0  0  0  0
   -4.2530   -0.6770   -0.3340 C   0  0  0  0  0  0  0  0  0  0  0  0
   -4.0880   -2.1110    0.1740 C   0  0  1  0  0  0  0  0  0  0  0  0
   -5.3270   -2.5550    0.9190 C   0  0  0  0  0  0  0  0  0  0  0  0
   -4.7480   -4.3250   -0.4680 C   0  0  0  0  0  0  0  0  0  0  0  0
   -3.9850   -3.0970   -1.0120 C   0  0  0  0  0  0  0  0  0  0  0  0
   -0.6160    0.0150   -0.6180 C   0  0  0  0  0  0  0  0  0  0  0  0
    0.5350    0.1430    0.3470 C   0  0  2  0  0  0  0  0  0  0  0  0
    0.3930    1.4430    1.1400 C   0  0  0  0  0  0  0  0  0  0  0  0
    5.2820   -0.6800    0.2220 C   0  0  0  0  0  0  0  0  0  0  0  0
    7.8770   -0.8320   -0.0670 C   0  0  1  0  0  0  0  0  0  0  0  0
   -5.6770   -3.7950    0.5370 N   0  0  0  0  0  0  0  0  0  0  0  0
    1.7970    0.1600   -0.3980 N   0  0  0  0  0  0  0  0  0  0  0  0
   -4.3840    1.0680   -2.5550 O   0  0  0  0  0  0  0  0  0  0  0  0
   -5.9180   -1.8890    1.7430 O   0  0  0  0  0  0  0  0  0  0  0  0
    4.1040   -0.1780   -0.4630 O   0  0  0  0  0  0  0  0  0  0  0  0
   -0.4160    0.0830   -1.8120 O   0  0  0  0  0  0  0  0  0  0  0  0
   -3.4410    2.3630   -0.4360 S   0  0  0  0  0  0  0  0  0  0  0  0
   -1.7050    1.1010    1.4870 H   0  0  0  0  0  0  0  0  0  0  0  0
    6.4690    0.3830   -1.3360 H   0  0  0  0  0  0  0  0  0  0  0  0
   -1.4530    0.1440    3.7430 H   0  0  0  0  0  0  0  0  0  0  0  0
   -0.3820   -0.6990    2.5990 H   0  0  0  0  0  0  0  0  0  0  0  0
    0.2890    0.5090    3.7210 H   0  0  0  0  0  0  0  0  0  0  0  0
   -1.1970    3.4640    2.0450 H   0  0  0  0  0  0  0  0  0  0  0  0
   -1.8860    2.6100    3.4470 H   0  0  0  0  0  0  0  0  0  0  0  0
   -0.1360    2.9230    3.3670 H   0  0  0  0  0  0  0  0  0  0  0  0
    6.8630   -2.6890   -0.8390 H   0  0  0  0  0  0  0  0  0  0  0  0
    7.6950   -1.6860   -2.1440 H   0  0  0  0  0  0  0  0  0  0  0  0
    8.8550    1.0790   -0.2480 H   0  0  0  0  0  0  0  0  0  0  0  0
   10.1180   -0.2930    1.3870 H   0  0  0  0  0  0  0  0  0  0  0  0
   11.2870    1.5040    0.1400 H   0  0  0  0  0  0  0  0  0  0  0  0
   12.3840    0.1450    0.4810 H   0  0  0  0  0  0  0  0  0  0  0  0
   11.6950    0.3450   -1.1480 H   0  0  0  0  0  0  0  0  0  0  0  0
   -2.0220   -0.2590    0.8010 H   0  0  0  0  0  0  0  0  0  0  0  0
   -2.3520    1.3760   -2.3430 H   0  0  0  0  0  0  0  0  0  0  0  0
   -2.7680   -0.9880   -1.8630 H   0  0  0  0  0  0  0  0  0  0  0  0
   -4.4120   -0.0080    0.5120 H   0  0  0  0  0  0  0  0  0  0  0  0
   -5.1120   -0.6260   -1.0040 H   0  0  0  0  0  0  0  0  0  0  0  0
   -3.2070   -2.1890    0.8130 H   0  0  0  0  0  0  0  0  0  0  0  0
   -5.2990   -4.8130   -1.2720 H   0  0  0  0  0  0  0  0  0  0  0  0
   -4.0530   -5.0270   -0.0080 H   0  0  0  0  0  0  0  0  0  0  0  0
   -4.4750   -2.6940   -1.8980 H   0  0  0  0  0  0  0  0  0  0  0  0
   -2.9450   -3.3460   -1.2240 H   0  0  0  0  0  0  0  0  0  0  0  0
    0.5300   -0.7040    1.0330 H   0  0  0  0  0  0  0  0  0  0  0  0
    0.2540    2.2760    0.4510 H   0  0  0  0  0  0  0  0  0  0  0  0
    1.2940    1.6080    1.7320 H   0  0  0  0  0  0  0  0  0  0  0  0
    5.1570   -1.7440    0.4260 H   0  0  0  0  0  0  0  0  0  0  0  0
    5.4120   -0.1430    1.1610 H   0  0  0  0  0  0  0  0  0  0  0  0
    7.8960   -1.2180    0.9520 H   0  0  0  0  0  0  0  0  0  0  0  0
   -6.4450   -4.2780    0.8800 H   0  0  0  0  0  0  0  0  0  0  0  0
    1.8180    0.4930   -1.3090 H   0  0  0  0  0  0  0  0  0  0  0  0
   -5.1930    0.8410   -2.0780 H   0  0  0  0  0  0  0  0  0  0  0  0
   -3.7800    3.6400   -1.1920 O   0  0  0  0  0  0  0  0  0  0  0  0
   -4.6090    2.0870    0.3260 O   0  0  0  0  0  0  0  0  0  0  0  0
   -2.2030    2.6510    0.2000 O   0  0  0  0  0  0  0  0  0  0  0  0
    9.2630   -0.0800   -1.5350 H   0  0  0  0  0  0  0  0  0  0  0  0
   10.5260   -1.4520    0.1000 H   0  0  0  0  0  0  0  0  0  0  0  0
   -3.9300    4.4070   -0.6220 H   0  0  0  0  0  0  0  0  0  0  0  0
  6 23  1  0  0  0  0
  3  6  1  0  0  0  0
 16 27  2  0  0  0  0
  3 23  1  0  0  0  0
  7 23  1  0  0  0  0
  3 22  1  0  0  0  0
  7  8  1  0  0  0  0
 16 24  1  0  0  0  0
 15 16  1  0  0  0  0
 17 24  1  0  0  0  0
 22 28  1  0  0  0  0
  2 10  2  0  0  0  0
  8  9  1  0  0  0  0
  2 28  1  0  0  0  0
  2 25  1  0  0  0  0
 14 15  1  0  0  0  0
 15 18  1  0  0  0  0
 17 18  1  0  0  0  0
  1  4  1  0  0  0  0
 13 14  1  0  0  0  0
 20 25  1  0  0  0  0
 12 30  1  0  0  0  0
 19 20  1  0  0  0  0
 20 21  1  0  0  0  0
 11 19  1  0  0  0  0
 11 13  1  0  0  0  0
 19 29  2  0  0  0  0
  1 21  1  0  0  0  0
  1  5  1  0  0  0  0
 12 13  1  0  0  0  0
 12 26  1  0  0  0  0
  1 31  1  0  0  0  0
  3 32  1  0  0  0  0
  4 33  1  0  0  0  0
  4 34  1  0  0  0  0
  4 35  1  0  0  0  0
  5 36  1  0  0  0  0
  5 37  1  0  0  0  0
  5 38  1  0  0  0  0
  6 39  1  0  0  0  0
  6 40  1  0  0  0  0
  7 41  1  0  0  0  0
  8 42  1  0  0  0  0
  9 43  1  0  0  0  0
  9 44  1  0  0  0  0
  9 45  1  0  0  0  0
 11 46  1  0  0  0  0
 12 47  1  0  0  0  0
 13 48  1  0  0  0  0
 14 49  1  0  0  0  0
 14 50  1  0  0  0  0
 15 51  1  0  0  0  0
 17 52  1  0  0  0  0
 17 53  1  0  0  0  0
 18 54  1  0  0  0  0
 18 55  1  0  0  0  0
 20 56  1  0  0  0  0
 21 57  1  0  0  0  0
 21 58  1  0  0  0  0
 22 59  1  0  0  0  0
 22 60  1  0  0  0  0
 23 61  1  0  0  0  0
 24 62  1  0  0  0  0
 25 63  1  0  0  0  0
 26 64  1  0  0  0  0
 30 65  1  0  0  0  0
 30 66  2  0  0  0  0
 30 67  2  0  0  0  0
  7 68  1  0  0  0  0
  8 69  1  0  0  0  0
 65 70  1  0  0  0  0
M  END
> <OPENEYE_ISO_SMILES>
CCC[C@@H]1C[C@H]1COC(=O)N[C@@H](CC(C)C)C(=O)N[C@@H](C[C@@H]2CCNC2=O)[C@@H](O)S(=O)(=O)O

> <OPENEYE_INCHI>
InChI=1S/C21H37N3O8S/c1-4-5-13-9-15(13)11-32-21(28)24-16(8-12(2)3)19(26)23-17(20(27)33(29,30)31)10-14-6-7-22-18(14)25/h12-17,20,27H,4-11H2,1-3H3,(H,22,25)(H,23,26)(H,24,28)(H,29,30,31)/t13-,14+,15+,16+,17+,20+/m1/s1

> <OPENEYE_INCHIKEY>
ZYXQADHLOGEXOL-VRCAPQLRSA-N

> <FORMULA>
C21H37N3O8S

$$$$
