ITG
  -OEChem-02242320023D

 70 71  0     1  0  0  0  0  0999 V2000
   -0.8900    1.9270    1.8170 C   0  0  0  0  0  0  0  0  0  0  0  0
    2.8100   -0.0310    0.1830 C   0  0  0  0  0  0  0  0  0  0  0  0
    6.3950   -0.4140   -0.5950 C   0  0  1  0  0  0  0  0  0  0  0  0
   -0.6090    1.0320    3.0260 C   0  0  0  0  0  0  0  0  0  0  0  0
   -1.1110    3.3650    2.2880 C   0  0  0  0  0  0  0  0  0  0  0  0
    7.1050   -1.7330   -0.9090 C   0  0  0  0  0  0  0  0  0  0  0  0
    8.9660    0.0480   -0.4460 C   0  0  0  0  0  0  0  0  0  0  0  0
   10.1840   -0.3170    0.4040 C   0  0  0  0  0  0  0  0  0  0  0  0
   11.4050    0.4590   -0.0950 C   0  0  0  0  0  0  0  0  0  0  0  0
    2.7490   -0.3820    1.3440 O   0  0  0  0  0  0  0  0  0  0  0  0
   -1.9640    0.0510   -0.1940 N   0  0  0  0  0  0  0  0  0  0  0  0
   -3.6680    0.9370   -1.7090 C   0  0  2  0  0  0  0  0  0  0  0  0
   -3.0540   -0.3250   -1.0980 C   0  0  2  0  0  0  0  0  0  0  0  0
   -4.1270   -1.0850   -0.3150 C   0  0  0  0  0  0  0  0  0  0  0  0
   -3.5440   -2.4040    0.1980 C   0  0  1  0  0  0  0  0  0  0  0  0
   -4.5800   -3.1650    0.9970 C   0  0  0  0  0  0  0  0  0  0  0  0
   -3.5750   -4.7260   -0.3980 C   0  0  0  0  0  0  0  0  0  0  0  0
   -3.2100   -3.3440   -0.9830 C   0  0  0  0  0  0  0  0  0  0  0  0
   -0.7190    0.2270   -0.6780 C   0  0  0  0  0  0  0  0  0  0  0  0
    0.4290    0.4770    0.2670 C   0  0  2  0  0  0  0  0  0  0  0  0
    0.3040    1.8810    0.8610 C   0  0  0  0  0  0  0  0  0  0  0  0
    5.1530   -0.4750    0.2950 C   0  0  0  0  0  0  0  0  0  0  0  0
    7.7450   -0.7280    0.0530 C   0  0  1  0  0  0  0  0  0  0  0  0
   -4.5790   -4.4600    0.6380 N   0  0  0  0  0  0  0  0  0  0  0  0
    1.6950    0.3650   -0.4620 N   0  0  0  0  0  0  0  0  0  0  0  0
   -2.6990    1.5850   -2.5350 O   0  0  0  0  0  0  0  0  0  0  0  0
   -5.3050   -2.6770    1.8380 O   0  0  0  0  0  0  0  0  0  0  0  0
    3.9930   -0.0370   -0.4610 O   0  0  0  0  0  0  0  0  0  0  0  0
   -0.5210    0.1850   -1.8740 O   0  0  0  0  0  0  0  0  0  0  0  0
   -4.1820    2.0620   -0.3830 S   0  0  0  0  0  0  0  0  0  0  0  0
   -1.7820    1.5710    1.3010 H   0  0  0  0  0  0  0  0  0  0  0  0
    6.3770    0.3460   -1.3770 H   0  0  0  0  0  0  0  0  0  0  0  0
   -1.4820    1.0200    3.6790 H   0  0  0  0  0  0  0  0  0  0  0  0
   -0.3950    0.0190    2.6860 H   0  0  0  0  0  0  0  0  0  0  0  0
    0.2490    1.4200    3.5740 H   0  0  0  0  0  0  0  0  0  0  0  0
   -1.3110    4.0030    1.4260 H   0  0  0  0  0  0  0  0  0  0  0  0
   -1.9620    3.3980    2.9690 H   0  0  0  0  0  0  0  0  0  0  0  0
   -0.2190    3.7210    2.8030 H   0  0  0  0  0  0  0  0  0  0  0  0
    6.6870   -2.6440   -0.4800 H   0  0  0  0  0  0  0  0  0  0  0  0
    7.5540   -1.8400   -1.8960 H   0  0  0  0  0  0  0  0  0  0  0  0
    8.7740    1.1180   -0.3660 H   0  0  0  0  0  0  0  0  0  0  0  0
    9.9910   -0.0600    1.4460 H   0  0  0  0  0  0  0  0  0  0  0  0
   11.2130    1.5290   -0.0140 H   0  0  0  0  0  0  0  0  0  0  0  0
   12.2730    0.1990    0.5110 H   0  0  0  0  0  0  0  0  0  0  0  0
   11.5990    0.2010   -1.1360 H   0  0  0  0  0  0  0  0  0  0  0  0
   -2.1380    0.1730    0.7520 H   0  0  0  0  0  0  0  0  0  0  0  0
   -4.5350    0.6640   -2.3110 H   0  0  0  0  0  0  0  0  0  0  0  0
   -2.6650   -0.9610   -1.8920 H   0  0  0  0  0  0  0  0  0  0  0  0
   -4.4570   -0.4810    0.5300 H   0  0  0  0  0  0  0  0  0  0  0  0
   -4.9750   -1.2920   -0.9670 H   0  0  0  0  0  0  0  0  0  0  0  0
   -2.6550   -2.2180    0.8020 H   0  0  0  0  0  0  0  0  0  0  0  0
   -3.9950   -5.3650   -1.1750 H   0  0  0  0  0  0  0  0  0  0  0  0
   -2.6940   -5.1950    0.0390 H   0  0  0  0  0  0  0  0  0  0  0  0
   -3.8260   -3.1130   -1.8520 H   0  0  0  0  0  0  0  0  0  0  0  0
   -2.1510   -3.2940   -1.2340 H   0  0  0  0  0  0  0  0  0  0  0  0
    0.4050   -0.2610    1.0690 H   0  0  0  0  0  0  0  0  0  0  0  0
    0.1540    2.6030    0.0580 H   0  0  0  0  0  0  0  0  0  0  0  0
    1.2150    2.1270    1.4060 H   0  0  0  0  0  0  0  0  0  0  0  0
    4.9990   -1.4990    0.6350 H   0  0  0  0  0  0  0  0  0  0  0  0
    5.2920    0.1770    1.1580 H   0  0  0  0  0  0  0  0  0  0  0  0
    7.7480   -0.9780    1.1130 H   0  0  0  0  0  0  0  0  0  0  0  0
   -5.1670   -5.1330    1.0170 H   0  0  0  0  0  0  0  0  0  0  0  0
    1.7300    0.5760   -1.4080 H   0  0  0  0  0  0  0  0  0  0  0  0
   -1.8990    1.8560   -2.0640 H   0  0  0  0  0  0  0  0  0  0  0  0
   -4.7690    3.2630   -1.1110 O   0  0  0  0  0  0  0  0  0  0  0  0
   -5.2810    1.5170    0.3360 O   0  0  0  0  0  0  0  0  0  0  0  0
   -3.0490    2.5840    0.2970 O   0  0  0  0  0  0  0  0  0  0  0  0
    9.1590   -0.2100   -1.4870 H   0  0  0  0  0  0  0  0  0  0  0  0
   10.3760   -1.3870    0.3240 H   0  0  0  0  0  0  0  0  0  0  0  0
   -5.0920    3.9600   -0.5230 H   0  0  0  0  0  0  0  0  0  0  0  0
  6 23  1  0  0  0  0
  3  6  1  0  0  0  0
 16 27  2  0  0  0  0
  3 23  1  0  0  0  0
  7 23  1  0  0  0  0
  3 22  1  0  0  0  0
 16 24  1  0  0  0  0
 15 16  1  0  0  0  0
  7  8  1  0  0  0  0
 17 24  1  0  0  0  0
 22 28  1  0  0  0  0
  2 10  2  0  0  0  0
  2 28  1  0  0  0  0
  8  9  1  0  0  0  0
 14 15  1  0  0  0  0
 15 18  1  0  0  0  0
  2 25  1  0  0  0  0
 17 18  1  0  0  0  0
  1  4  1  0  0  0  0
 13 14  1  0  0  0  0
 20 25  1  0  0  0  0
 12 30  1  0  0  0  0
 19 20  1  0  0  0  0
 20 21  1  0  0  0  0
 11 13  1  0  0  0  0
 11 19  1  0  0  0  0
  1 21  1  0  0  0  0
  1  5  1  0  0  0  0
 12 13  1  0  0  0  0
 19 29  2  0  0  0  0
 12 26  1  0  0  0  0
  1 31  1  0  0  0  0
  3 32  1  0  0  0  0
  4 33  1  0  0  0  0
  4 34  1  0  0  0  0
  4 35  1  0  0  0  0
  5 36  1  0  0  0  0
  5 37  1  0  0  0  0
  5 38  1  0  0  0  0
  6 39  1  0  0  0  0
  6 40  1  0  0  0  0
  7 41  1  0  0  0  0
  8 42  1  0  0  0  0
  9 43  1  0  0  0  0
  9 44  1  0  0  0  0
  9 45  1  0  0  0  0
 11 46  1  0  0  0  0
 12 47  1  0  0  0  0
 13 48  1  0  0  0  0
 14 49  1  0  0  0  0
 14 50  1  0  0  0  0
 15 51  1  0  0  0  0
 17 52  1  0  0  0  0
 17 53  1  0  0  0  0
 18 54  1  0  0  0  0
 18 55  1  0  0  0  0
 20 56  1  0  0  0  0
 21 57  1  0  0  0  0
 21 58  1  0  0  0  0
 22 59  1  0  0  0  0
 22 60  1  0  0  0  0
 23 61  1  0  0  0  0
 24 62  1  0  0  0  0
 25 63  1  0  0  0  0
 26 64  1  0  0  0  0
 30 65  1  0  0  0  0
 30 66  2  0  0  0  0
 30 67  2  0  0  0  0
  7 68  1  0  0  0  0
  8 69  1  0  0  0  0
 65 70  1  0  0  0  0
M  END
> <OPENEYE_ISO_SMILES>
CCC[C@@H]1C[C@H]1COC(=O)N[C@@H](CC(C)C)C(=O)N[C@@H](C[C@@H]2CCNC2=O)[C@H](O)S(=O)(=O)O

> <OPENEYE_INCHI>
InChI=1S/C21H37N3O8S/c1-4-5-13-9-15(13)11-32-21(28)24-16(8-12(2)3)19(26)23-17(20(27)33(29,30)31)10-14-6-7-22-18(14)25/h12-17,20,27H,4-11H2,1-3H3,(H,22,25)(H,23,26)(H,24,28)(H,29,30,31)/t13-,14+,15+,16+,17+,20-/m1/s1

> <OPENEYE_INCHIKEY>
ZYXQADHLOGEXOL-KAPKYQHQSA-N

> <FORMULA>
C21H37N3O8S

$$$$
