@<TRIPOS>MOLECULE
/home/pku/3cl/gett_pdb/5SS9/5SS9_mol2/ligand/5SS9_RLU.pdb
 36 38 0 0 0
SMALL
GASTEIGER

@<TRIPOS>ATOM
      1  C16      -48.3650  -29.0080    4.7340 C.ar  201  RLU201     -0.0329
      2  C17      -49.0640  -28.9160    5.9150 C.ar  201  RLU201      0.0042
      3  C15      -47.0410  -29.0600    5.1440 C.ar  201  RLU201      0.0491
      4  C14      -45.8630  -29.1130    4.4520 C.ar  201  RLU201      0.1377
      5  C13      -45.9540  -29.2590    2.9690 C.2   201  RLU201      0.2636
      6  C11      -43.2950  -27.7370    0.4440 C.ar  201  RLU201     -0.0558
      7  C10      -43.1710  -26.5550   -0.2400 C.ar  201  RLU201     -0.0474
      8  C19      -46.9820  -28.9950    6.5030 C.ar  201  RLU201      0.1420
      9  C02      -43.5970  -31.8140    2.1180 C.2   201  RLU201      0.0891
     10  C03      -43.4810  -30.8140    0.9640 C.3   201  RLU201      0.0186
     11  C04      -44.6210  -29.7940    1.0040 C.3   201  RLU201      0.0545
     12  C05      -44.4380  -28.4890    0.2660 C.ar  201  RLU201     -0.0268
     13  C06      -45.4700  -28.0710   -0.5560 C.ar  201  RLU201     -0.0558
     14  C07      -45.3440  -26.8840   -1.2440 C.ar  201  RLU201     -0.0474
     15  C08      -44.1850  -26.1440   -1.0680 C.ar  201  RLU201      0.0179
     16  C21      -44.6730  -29.1140    6.3900 C.ar  201  RLU201      0.1191
     17  N12      -44.6960  -29.5200    2.3860 N.am  201  RLU201     -0.3029
     18  N18      -48.2340  -28.9080    6.9420 N.ar  201  RLU201     -0.3457
     19  N20      -45.7840  -29.0300    7.0930 N.ar  201  RLU201     -0.2179
     20  N22      -44.7030  -29.1750    5.0770 N.ar  201  RLU201     -0.2301
     21  O01      -44.2460  -32.8760    1.9380 O.co2 201  RLU201     -0.8475
     22  O23      -46.9600  -29.2920    2.3490 O.2   201  RLU201     -0.2685
     23  O24      -43.0600  -31.5930    3.2410 O.co2 201  RLU201     -0.3089
     24 BR09      -43.8940  -24.4740   -1.9660 Br    201  RLU201     -0.0503
     25 H161      -48.7300  -29.0380    3.7110 H     201  RLU201      0.0640
     26 H171      -50.1300  -28.8790    5.9700 H     201  RLU201      0.0807
     27 H111      -42.5110  -28.0720    1.1060 H     201  RLU201      0.0621
     28 H101      -42.2870  -25.9410   -0.1460 H     201  RLU201      0.0629
     29 H032      -42.5210  -30.3190    1.0400 H     201  RLU201      0.0354
     30 H031      -43.5410  -31.3710    0.0470 H     201  RLU201      0.0354
     31 H041      -45.5510  -30.2570    0.6990 H     201  RLU201      0.0552
     32 H061      -46.3670  -28.6820   -0.6560 H     201  RLU201      0.0621
     33 H071      -46.1330  -26.5450   -1.9060 H     201  RLU201      0.0629
     34 H211      -43.7170  -29.1280    6.8860 H     201  RLU201      0.1048
     35 H121      -43.8870  -29.5290    2.9490 H     201  RLU201      0.1497
     36 H181      -48.4990  -28.8710    7.8980 H     201  RLU201      0.1668
@<TRIPOS>UNITY_ATOM_ATTR
21 1
charge -1
@<TRIPOS>BOND
     1    24    15    1
     2    33    14    1
     3    14    15   ar
     4    14    13   ar
     5    15     7   ar
     6    32    13    1
     7    13    12   ar
     8     7    28    1
     9     7     6   ar
    10    30    10    1
    11    12     6   ar
    12    12    11    1
    13     6    27    1
    14    31    11    1
    15    10    11    1
    16    10    29    1
    17    10     9    1
    18    11    17    1
    19    21     9   ar
    20     9    23   ar
    21    22     5    2
    22    17    35    1
    23    17     5   am
    24     5     4    1
    25    25     1    1
    26     4    20   ar
    27     4     3   ar
    28     1     3   ar
    29     1     2   ar
    30    20    16   ar
    31     3     8   ar
    32     2    26    1
    33     2    18   ar
    34    16    34    1
    35    16    19   ar
    36     8    18   ar
    37     8    19   ar
    38    18    36    1
