RDU
  -OEChem-02242320043D

 44 48  0     1  0  0  0  0  0999 V2000
   -0.6790   -3.7320    0.1060 C   0  0  0  0  0  0  0  0  0  0  0  0
   -2.3500   -2.1500    0.0140 C   0  0  0  0  0  0  0  0  0  0  0  0
   -1.6670    1.4670   -0.1160 C   0  0  0  0  0  0  0  0  0  0  0  0
   -2.6040    2.4760   -0.1760 C   0  0  0  0  0  0  0  0  0  0  0  0
   -3.9590    2.1710   -0.1960 C   0  0  0  0  0  0  0  0  0  0  0  0
   -4.3820    0.8580   -0.1580 C   0  0  0  0  0  0  0  0  0  0  0  0
    1.8270   -0.6600    1.2070 C   0  0  0  0  0  0  0  0  0  0  0  0
    3.6970    0.2870   -2.5050 C   0  0  0  0  0  0  0  0  0  0  0  0
    2.8270    0.4360   -1.2550 C   0  0  1  0  0  0  0  0  0  0  0  0
    1.7950   -0.6930   -1.2120 C   0  0  0  0  0  0  0  0  0  0  0  0
   -0.0210   -1.5240    0.0320 C   0  0  0  0  0  0  0  0  0  0  0  0
   -1.3680   -1.1480   -0.0140 C   0  0  0  0  0  0  0  0  0  0  0  0
   -2.0810    0.1380   -0.0780 C   0  0  0  0  0  0  0  0  0  0  0  0
   -3.4500   -0.1730   -0.0990 C   0  0  0  0  0  0  0  0  0  0  0  0
    2.9130    0.4120    1.1330 C   0  0  0  0  0  0  0  0  0  0  0  0
    3.7970    0.4760    2.3850 C   0  0  0  0  0  0  0  0  0  0  0  0
    2.7780    1.4800    2.9520 C   0  0  0  0  0  0  0  0  0  0  0  0
    2.4130    1.8160    1.4950 C   0  0  0  0  0  0  0  0  0  0  0  0
   -4.8690    3.1670   -0.2540 F   0  0  0  0  0  0  0  0  0  0  0  0
    0.9820   -0.5700    0.0060 N   0  0  1  0  0  0  0  0  0  0  0  0
   -3.5850   -1.5490   -0.0280 N   0  0  0  0  0  0  0  0  0  0  0  0
   -1.9570   -3.4220    0.0740 N   0  0  0  0  0  0  0  0  0  0  0  0
    0.2750   -2.8200    0.0860 N   0  0  0  0  0  0  0  0  0  0  0  0
    4.5810    1.4040   -2.6060 O   0  0  0  0  0  0  0  0  0  0  0  0
    3.6520    0.3670   -0.0870 O   0  0  0  0  0  0  0  0  0  0  0  0
   -0.3990   -4.7740    0.1540 H   0  0  0  0  0  0  0  0  0  0  0  0
   -0.6140    1.7070   -0.1000 H   0  0  0  0  0  0  0  0  0  0  0  0
   -2.2840    3.5070   -0.2060 H   0  0  0  0  0  0  0  0  0  0  0  0
   -5.4380    0.6300   -0.1750 H   0  0  0  0  0  0  0  0  0  0  0  0
    2.2890   -1.6460    1.2540 H   0  0  0  0  0  0  0  0  0  0  0  0
    1.2160   -0.5010    2.0960 H   0  0  0  0  0  0  0  0  0  0  0  0
    4.2790   -0.6320   -2.4340 H   0  0  0  0  0  0  0  0  0  0  0  0
    3.0600    0.2470   -3.3880 H   0  0  0  0  0  0  0  0  0  0  0  0
    2.3130    1.3980   -1.2820 H   0  0  0  0  0  0  0  0  0  0  0  0
    1.1500   -0.6290   -2.0880 H   0  0  0  0  0  0  0  0  0  0  0  0
    2.3090   -1.6550   -1.2100 H   0  0  0  0  0  0  0  0  0  0  0  0
    3.8400   -0.4620    2.9380 H   0  0  0  0  0  0  0  0  0  0  0  0
    4.7810    0.9070    2.2020 H   0  0  0  0  0  0  0  0  0  0  0  0
    1.9670    1.0110    3.5080 H   0  0  0  0  0  0  0  0  0  0  0  0
    3.2370    2.3100    3.4900 H   0  0  0  0  0  0  0  0  0  0  0  0
    3.0150    2.6180    1.0680 H   0  0  0  0  0  0  0  0  0  0  0  0
    1.3440    1.9540    1.3340 H   0  0  0  0  0  0  0  0  0  0  0  0
   -4.4310   -2.0230   -0.0200 H   0  0  0  0  0  0  0  0  0  0  0  0
    5.1640    1.3760   -3.3770 H   0  0  0  0  0  0  0  0  0  0  0  0
  8 24  1  0  0  0  0
  8  9  1  0  0  0  0
  9 25  1  0  0  0  0
 15 25  1  0  0  0  0
  9 10  1  0  0  0  0
 15 18  1  0  0  0  0
 17 18  1  0  0  0  0
 15 16  1  0  0  0  0
  7 15  1  0  0  0  0
 16 17  1  0  0  0  0
 10 20  1  0  0  0  0
  7 20  1  0  0  0  0
 11 20  1  0  0  0  0
  3  4  2  0  0  0  0
  3 13  1  0  0  0  0
  4  5  1  0  0  0  0
 11 12  2  0  0  0  0
 11 23  1  0  0  0  0
 12 13  1  0  0  0  0
 13 14  2  0  0  0  0
  2 12  1  0  0  0  0
  1 23  2  0  0  0  0
  5 19  1  0  0  0  0
  5  6  2  0  0  0  0
  6 14  1  0  0  0  0
 14 21  1  0  0  0  0
  1 22  1  0  0  0  0
  2 21  1  0  0  0  0
  2 22  2  0  0  0  0
  1 26  1  0  0  0  0
  3 27  1  0  0  0  0
  4 28  1  0  0  0  0
  6 29  1  0  0  0  0
  7 30  1  0  0  0  0
  7 31  1  0  0  0  0
  8 32  1  0  0  0  0
  8 33  1  0  0  0  0
  9 34  1  0  0  0  0
 10 35  1  0  0  0  0
 10 36  1  0  0  0  0
 16 37  1  0  0  0  0
 16 38  1  0  0  0  0
 17 39  1  0  0  0  0
 17 40  1  0  0  0  0
 18 41  1  0  0  0  0
 18 42  1  0  0  0  0
 21 43  1  0  0  0  0
 24 44  1  0  0  0  0
M  END
> <OPENEYE_ISO_SMILES>
c1cc2c(cc1F)[nH]c3c2c(ncn3)[N@@]4C[C@@H](OC5(C4)CCC5)CO

> <OPENEYE_INCHI>
InChI=1S/C18H19FN4O2/c19-11-2-3-13-14(6-11)22-16-15(13)17(21-10-20-16)23-7-12(8-24)25-18(9-23)4-1-5-18/h2-3,6,10,12,24H,1,4-5,7-9H2,(H,20,21,22)/t12-/m1/s1

> <OPENEYE_INCHIKEY>
LYLUBGOVYDDPIC-GFCCVEGCSA-N

> <FORMULA>
C18H19FN4O2

$$$$
