T1M
  -OEChem-02242320043D

 34 35  0     1  0  0  0  0  0999 V2000
    1.7410   -0.0390    0.6090 C   0  0  0  0  0  0  0  0  0  0  0  0
    4.1800    0.2200   -0.6660 C   0  0  0  0  0  0  0  0  0  0  0  0
    2.3740    1.1890    0.5720 C   0  0  0  0  0  0  0  0  0  0  0  0
   -2.3300   -1.1730    1.6460 C   0  0  0  0  0  0  0  0  0  0  0  0
   -1.9670    0.1800    1.0300 C   0  0  2  0  0  0  0  0  0  0  0  0
   -3.0460    0.5870    0.0230 C   0  0  2  0  0  0  0  0  0  0  0  0
   -3.1200   -0.4610   -1.0900 C   0  0  0  0  0  0  0  0  0  0  0  0
   -1.7470   -0.5860   -1.7550 C   0  0  0  0  0  0  0  0  0  0  0  0
   -0.7060   -0.9590   -0.6970 C   0  0  0  0  0  0  0  0  0  0  0  0
    0.4110   -0.1800    1.3040 C   0  0  0  0  0  0  0  0  0  0  0  0
    2.3240   -1.1360    0.0040 C   0  0  0  0  0  0  0  0  0  0  0  0
    3.5440   -1.0070   -0.6330 C   0  0  0  0  0  0  0  0  0  0  0  0
    3.5940    1.3190   -0.0660 C   0  0  0  0  0  0  0  0  0  0  0  0
   -0.6720    0.0740    0.3450 N   0  0  2  0  0  0  0  0  0  0  0  0
   -2.7180    1.8600   -0.5390 O   0  0  0  0  0  0  0  0  0  0  0  0
    5.1330    0.3210   -1.1630 H   0  0  0  0  0  0  0  0  0  0  0  0
    1.9160    2.0480    1.0410 H   0  0  0  0  0  0  0  0  0  0  0  0
   -1.5620   -1.4630    2.3630 H   0  0  0  0  0  0  0  0  0  0  0  0
   -3.2910   -1.0940    2.1540 H   0  0  0  0  0  0  0  0  0  0  0  0
   -2.3950   -1.9250    0.8590 H   0  0  0  0  0  0  0  0  0  0  0  0
   -1.9020    0.9320    1.8160 H   0  0  0  0  0  0  0  0  0  0  0  0
   -4.0100    0.6510    0.5290 H   0  0  0  0  0  0  0  0  0  0  0  0
   -3.4090   -1.4230   -0.6670 H   0  0  0  0  0  0  0  0  0  0  0  0
   -3.8580   -0.1530   -1.8320 H   0  0  0  0  0  0  0  0  0  0  0  0
   -1.7820   -1.3610   -2.5200 H   0  0  0  0  0  0  0  0  0  0  0  0
   -1.4760    0.3660   -2.2130 H   0  0  0  0  0  0  0  0  0  0  0  0
   -0.9700   -1.9180   -0.2500 H   0  0  0  0  0  0  0  0  0  0  0  0
    0.2760   -1.0350   -1.1650 H   0  0  0  0  0  0  0  0  0  0  0  0
    0.3150   -1.1900    1.7020 H   0  0  0  0  0  0  0  0  0  0  0  0
    0.3500    0.5400    2.1210 H   0  0  0  0  0  0  0  0  0  0  0  0
    1.8270   -2.0950    0.0290 H   0  0  0  0  0  0  0  0  0  0  0  0
    4.0020   -1.8650   -1.1020 H   0  0  0  0  0  0  0  0  0  0  0  0
    4.0890    2.2790   -0.0950 H   0  0  0  0  0  0  0  0  0  0  0  0
   -3.3600    2.1810   -1.1870 H   0  0  0  0  0  0  0  0  0  0  0  0
  4  5  1  0  0  0  0
  5  6  1  0  0  0  0
  6 15  1  0  0  0  0
  6  7  1  0  0  0  0
  7  8  1  0  0  0  0
  8  9  1  0  0  0  0
  9 14  1  0  0  0  0
 10 14  1  0  0  0  0
  1 10  1  0  0  0  0
  1 11  2  0  0  0  0
 11 12  1  0  0  0  0
  2 12  2  0  0  0  0
  2 13  1  0  0  0  0
  3 13  2  0  0  0  0
  5 14  1  0  0  0  0
  1  3  1  0  0  0  0
  2 16  1  0  0  0  0
  3 17  1  0  0  0  0
  4 18  1  0  0  0  0
  4 19  1  0  0  0  0
  4 20  1  0  0  0  0
  5 21  1  0  0  0  0
  6 22  1  0  0  0  0
  7 23  1  0  0  0  0
  7 24  1  0  0  0  0
  8 25  1  0  0  0  0
  8 26  1  0  0  0  0
  9 27  1  0  0  0  0
  9 28  1  0  0  0  0
 10 29  1  0  0  0  0
 10 30  1  0  0  0  0
 11 31  1  0  0  0  0
 12 32  1  0  0  0  0
 13 33  1  0  0  0  0
 15 34  1  0  0  0  0
M  END
> <OPENEYE_ISO_SMILES>
C[C@@H]1[C@H](CCC[N@@]1Cc2ccccc2)O

> <OPENEYE_INCHI>
InChI=1S/C13H19NO/c1-11-13(15)8-5-9-14(11)10-12-6-3-2-4-7-12/h2-4,6-7,11,13,15H,5,8-10H2,1H3/t11-,13+/m1/s1

> <OPENEYE_INCHIKEY>
ZFJGRVQFTNBLRP-YPMHNXCESA-N

> <FORMULA>
C13H19NO

$$$$
