YG4
  -OEChem-02242320043D

118125  0     1  0  0  0  0  0999 V2000
    7.7480    2.0290   -2.1230 C   0  0  2  0  0  0  0  0  0  0  0  0
    7.4780    4.8090    1.3210 C   0  0  0  0  0  0  0  0  0  0  0  0
    9.2630    2.0800   -1.8260 C   0  0  1  0  0  0  0  0  0  0  0  0
    9.5400    0.7670   -1.0590 C   0  0  1  0  0  0  0  0  0  0  0  0
    7.1320    4.1540   -0.8740 C   0  0  0  0  0  0  0  0  0  0  0  0
    8.1590    0.0790   -0.9830 C   0  0  1  0  0  0  0  0  0  0  0  0
    6.4960    5.3550   -1.1420 C   0  0  0  0  0  0  0  0  0  0  0  0
    7.9890   -0.6270    0.3640 C   0  0  0  0  0  0  0  0  0  0  0  0
    6.3600    6.2960   -0.1100 C   0  0  0  0  0  0  0  0  0  0  0  0
    6.5030    4.1140   -3.0920 C   0  0  0  0  0  0  0  0  0  0  0  0
    5.3750    6.4790   -3.1630 C   0  0  0  0  0  0  0  0  0  0  0  0
   -1.6500   -2.9610    0.5560 C   0  0  0  0  0  0  0  0  0  0  0  0
   -2.1750   -2.6300   -0.8430 C   0  0  2  0  0  0  0  0  0  0  0  0
   -3.7160   -2.4620   -0.8210 C   0  0  2  0  0  0  0  0  0  0  0  0
   -4.0970   -2.7760   -2.2880 C   0  0  2  0  0  0  0  0  0  0  0  0
   -2.8990   -3.5830   -2.8250 C   0  0  2  0  0  0  0  0  0  0  0  0
   -2.2280   -5.6800   -3.8570 C   0  0  0  0  0  0  0  0  0  0  0  0
   -2.8920   -6.6170   -1.8730 C   0  0  0  0  0  0  0  0  0  0  0  0
   -3.1880   -7.4880   -0.8260 C   0  0  0  0  0  0  0  0  0  0  0  0
   -5.2380   -6.4620   -0.5830 C   0  0  0  0  0  0  0  0  0  0  0  0
   -3.8430   -5.6630   -2.2340 C   0  0  0  0  0  0  0  0  0  0  0  0
   -5.2070   -1.6630   -4.0980 C   0  0  0  0  0  0  0  0  0  0  0  0
   -5.7520    1.4690    2.0550 C   0  0  0  0  0  0  0  0  0  0  0  0
   -5.6550    2.9880    1.8990 C   0  0  2  0  0  0  0  0  0  0  0  0
   -6.2540    3.6810    3.1380 C   0  0  2  0  0  0  0  0  0  0  0  0
   -7.4540    4.4840    2.5810 C   0  0  2  0  0  0  0  0  0  0  0  0
   -7.7390    3.7560    1.2430 C   0  0  1  0  0  0  0  0  0  0  0  0
   -7.8400    4.9360   -0.8800 C   0  0  0  0  0  0  0  0  0  0  0  0
   -9.6350    6.3090   -1.4740 C   0  0  0  0  0  0  0  0  0  0  0  0
  -10.2530    6.0180   -0.2330 C   0  0  0  0  0  0  0  0  0  0  0  0
   -9.6290    5.1930    0.6340 C   0  0  0  0  0  0  0  0  0  0  0  0
    6.8580    6.0010    1.1090 N   0  0  0  0  0  0  0  0  0  0  0  0
    7.9780    4.5260    2.5670 N   0  0  0  0  0  0  0  0  0  0  0  0
    7.6050    3.9200    0.3610 N   0  0  0  0  0  0  0  0  0  0  0  0
    6.0840    5.3870   -2.4910 N   0  0  3  0  0  0  0  0  0  0  0  0
    7.1590    3.3660   -2.0130 N   0  0  3  0  0  0  0  0  0  0  0  0
   -3.3530   -4.9000   -3.2920 N   0  0  1  0  0  0  0  0  0  0  0  0
   -1.7630   -6.4840   -2.7030 N   0  0  0  0  0  0  0  0  0  0  0  0
   -2.2720   -8.4550   -0.4290 N   0  0  0  0  0  0  0  0  0  0  0  0
   -4.3650   -7.3760   -0.2120 N   0  0  0  0  0  0  0  0  0  0  0  0
   -4.9950   -5.6200   -1.5680 N   0  0  0  0  0  0  0  0  0  0  0  0
   -8.4160    4.6520    0.3020 N   0  0  0  0  0  0  0  0  0  0  0  0
   -8.4400    5.7560   -1.7630 N   0  0  0  0  0  0  0  0  0  0  0  0
   10.0110    2.1150   -3.0430 O   0  0  0  0  0  0  0  0  0  0  0  0
   10.4670   -0.0480   -1.7780 O   0  0  0  0  0  0  0  0  0  0  0  0
    7.2030    1.1540   -1.1120 O   0  0  0  0  0  0  0  0  0  0  0  0
    6.7580   -1.3520    0.3700 O   0  0  0  0  0  0  0  0  0  0  0  0
    5.8050    7.3650   -0.3140 O   0  0  0  0  0  0  0  0  0  0  0  0
    7.2650   -3.4440    1.8790 O   0  0  0  0  0  0  0  0  0  0  0  0
    6.2200   -1.3550    2.8360 O   0  0  0  0  0  0  0  0  0  0  0  0
    4.7780   -2.7860    1.3380 O   0  0  0  0  0  0  0  0  0  0  0  0
    3.4070   -2.4370    3.4280 O   0  0  0  0  0  0  0  0  0  0  0  0
    3.9550   -4.8170    2.7910 O   0  0  0  0  0  0  0  0  0  0  0  0
    2.2220   -3.3960    1.4160 O   0  0  0  0  0  0  0  0  0  0  0  0
    0.3860   -2.4600    2.8740 O   0  0  0  0  0  0  0  0  0  0  0  0
    0.2870   -4.9230    2.3320 O   0  0  0  0  0  0  0  0  0  0  0  0
   -0.2280   -3.0990    0.5100 O   0  0  0  0  0  0  0  0  0  0  0  0
   -1.9710   -3.7430   -1.7400 O   0  0  0  0  0  0  0  0  0  0  0  0
   -4.0780   -1.1230   -0.4750 O   0  0  0  0  0  0  0  0  0  0  0  0
   -4.2590   -1.5670   -3.0330 O   0  0  0  0  0  0  0  0  0  0  0  0
   -4.4010   -1.3490    2.0180 O   0  0  0  0  0  0  0  0  0  0  0  0
   -6.4740   -1.3700    0.5790 O   0  0  0  0  0  0  0  0  0  0  0  0
   -5.0920    0.8340    0.9570 O   0  0  0  0  0  0  0  0  0  0  0  0
   -6.4230    3.4120    0.7600 O   0  0  0  0  0  0  0  0  0  0  0  0
   -5.2960    4.5600    3.7310 O   0  0  0  0  0  0  0  0  0  0  0  0
   -7.0930    5.8480    2.3530 O   0  0  0  0  0  0  0  0  0  0  0  0
   -6.7600    4.4480   -1.1530 O   0  0  0  0  0  0  0  0  0  0  0  0
  -10.1780    7.0510   -2.2720 O   0  0  0  0  0  0  0  0  0  0  0  0
    6.2540   -2.2160    1.6320 P   0  0  1  0  0  0  0  0  0  0  0  0
    3.5860   -3.3390    2.2690 P   0  0  2  0  0  0  0  0  0  0  0  0
    0.6610   -3.4480    1.8060 P   0  0  2  0  0  0  0  0  0  0  0  0
   -4.9980   -0.7650    0.7970 P   0  0  2  0  0  0  0  0  0  0  0  0
    7.5700    1.6170   -3.1170 H   0  0  0  0  0  0  0  0  0  0  0  0
    9.5020    2.9440   -1.2070 H   0  0  0  0  0  0  0  0  0  0  0  0
    9.9160    0.9800   -0.0580 H   0  0  0  0  0  0  0  0  0  0  0  0
    8.0430   -0.6310   -1.8010 H   0  0  0  0  0  0  0  0  0  0  0  0
    8.8180   -1.3160    0.5200 H   0  0  0  0  0  0  0  0  0  0  0  0
    7.9770    0.1150    1.1630 H   0  0  0  0  0  0  0  0  0  0  0  0
    5.6350    3.5650   -3.4570 H   0  0  0  0  0  0  0  0  0  0  0  0
    7.2050    4.2930   -3.9060 H   0  0  0  0  0  0  0  0  0  0  0  0
    4.2990    6.3290   -3.0650 H   0  0  0  0  0  0  0  0  0  0  0  0
    5.6520    7.4290   -2.7050 H   0  0  0  0  0  0  0  0  0  0  0  0
    5.6450    6.4920   -4.2190 H   0  0  0  0  0  0  0  0  0  0  0  0
   -1.9160   -2.1580    1.2430 H   0  0  0  0  0  0  0  0  0  0  0  0
   -2.0950   -3.8950    0.8990 H   0  0  0  0  0  0  0  0  0  0  0  0
   -1.6940   -1.7320   -1.2290 H   0  0  0  0  0  0  0  0  0  0  0  0
   -4.1760   -3.1760   -0.1380 H   0  0  0  0  0  0  0  0  0  0  0  0
   -5.0080   -3.3740   -2.3260 H   0  0  0  0  0  0  0  0  0  0  0  0
   -2.4240   -3.0410   -3.6430 H   0  0  0  0  0  0  0  0  0  0  0  0
   -2.5740   -6.3260   -4.6630 H   0  0  0  0  0  0  0  0  0  0  0  0
   -1.4360   -5.0180   -4.2090 H   0  0  0  0  0  0  0  0  0  0  0  0
   -6.1820   -6.3990   -0.0640 H   0  0  0  0  0  0  0  0  0  0  0  0
   -5.2720   -0.7050   -4.6140 H   0  0  0  0  0  0  0  0  0  0  0  0
   -4.8870   -2.4330   -4.8010 H   0  0  0  0  0  0  0  0  0  0  0  0
   -6.1840   -1.9250   -3.6930 H   0  0  0  0  0  0  0  0  0  0  0  0
   -5.2760    1.1680    2.9880 H   0  0  0  0  0  0  0  0  0  0  0  0
   -6.8010    1.1710    2.0690 H   0  0  0  0  0  0  0  0  0  0  0  0
   -4.6130    3.2820    1.7760 H   0  0  0  0  0  0  0  0  0  0  0  0
   -6.5930    2.9410    3.8630 H   0  0  0  0  0  0  0  0  0  0  0  0
   -8.3120    4.4170    3.2510 H   0  0  0  0  0  0  0  0  0  0  0  0
   -8.3350    2.8590    1.4130 H   0  0  0  0  0  0  0  0  0  0  0  0
  -11.2100    6.4520    0.0160 H   0  0  0  0  0  0  0  0  0  0  0  0
  -10.0850    4.9600    1.5850 H   0  0  0  0  0  0  0  0  0  0  0  0
    6.7730    6.6400    1.8340 H   0  0  0  0  0  0  0  0  0  0  0  0
    7.8860    5.1720    3.2840 H   0  0  0  0  0  0  0  0  0  0  0  0
    8.4220    3.6790    2.7300 H   0  0  0  0  0  0  0  0  0  0  0  0
   -1.0110   -6.0200   -2.2170 H   0  0  0  0  0  0  0  0  0  0  0  0
   -1.4180   -8.5280   -0.8820 H   0  0  0  0  0  0  0  0  0  0  0  0
   -2.4870   -9.0560    0.3010 H   0  0  0  0  0  0  0  0  0  0  0  0
   -8.0100    5.9500   -2.6110 H   0  0  0  0  0  0  0  0  0  0  0  0
   10.9690    2.1480   -2.9150 H   0  0  0  0  0  0  0  0  0  0  0  0
   11.3500    0.3370   -1.8560 H   0  0  0  0  0  0  0  0  0  0  0  0
    7.3380   -4.0510    1.1300 H   0  0  0  0  0  0  0  0  0  0  0  0
    4.0870   -5.4620    2.0830 H   0  0  0  0  0  0  0  0  0  0  0  0
    0.4430   -5.6230    1.6830 H   0  0  0  0  0  0  0  0  0  0  0  0
   -6.9260   -1.0310   -0.2060 H   0  0  0  0  0  0  0  0  0  0  0  0
   -5.6190    5.0230    4.5160 H   0  0  0  0  0  0  0  0  0  0  0  0
   -6.8190    6.3210    3.1510 H   0  0  0  0  0  0  0  0  0  0  0  0
 25 65  1  0  0  0  0
 23 24  1  0  0  0  0
 23 63  1  0  0  0  0
 24 25  1  0  0  0  0
 24 64  1  0  0  0  0
 25 26  1  0  0  0  0
 22 60  1  0  0  0  0
 61 72  2  0  0  0  0
 26 66  1  0  0  0  0
 15 60  1  0  0  0  0
 63 72  1  0  0  0  0
 27 64  1  0  0  0  0
 26 27  1  0  0  0  0
 59 72  1  0  0  0  0
 62 72  1  0  0  0  0
 14 59  1  0  0  0  0
 28 67  2  0  0  0  0
 27 42  1  0  0  0  0
 14 15  1  0  0  0  0
 15 16  1  0  0  0  0
 13 14  1  0  0  0  0
 28 42  1  0  0  0  0
 28 43  1  0  0  0  0
 13 58  1  0  0  0  0
 12 13  1  0  0  0  0
 31 42  1  0  0  0  0
 20 41  2  0  0  0  0
 21 41  1  0  0  0  0
 16 58  1  0  0  0  0
 16 37  1  0  0  0  0
 20 40  1  0  0  0  0
 12 57  1  0  0  0  0
 29 43  1  0  0  0  0
 21 37  1  0  0  0  0
 18 21  2  0  0  0  0
 17 37  1  0  0  0  0
 30 31  2  0  0  0  0
 19 40  2  0  0  0  0
 57 71  1  0  0  0  0
 29 30  1  0  0  0  0
 29 68  2  0  0  0  0
 18 19  1  0  0  0  0
 18 38  1  0  0  0  0
 19 39  1  0  0  0  0
 17 38  1  0  0  0  0
 55 71  2  0  0  0  0
 54 71  1  0  0  0  0
 56 71  1  0  0  0  0
 54 70  1  0  0  0  0
 52 70  2  0  0  0  0
 51 70  1  0  0  0  0
 53 70  1  0  0  0  0
 50 69  2  0  0  0  0
 51 69  1  0  0  0  0
 49 69  1  0  0  0  0
 47 69  1  0  0  0  0
 11 35  1  0  0  0  0
  8 47  1  0  0  0  0
  6  8  1  0  0  0  0
 10 35  1  0  0  0  0
  7 35  1  0  0  0  0
 10 36  1  0  0  0  0
  9 48  2  0  0  0  0
  4 45  1  0  0  0  0
  4  6  1  0  0  0  0
  3  4  1  0  0  0  0
  6 46  1  0  0  0  0
  7  9  1  0  0  0  0
  5  7  2  0  0  0  0
  9 32  1  0  0  0  0
  1 36  1  0  0  0  0
  5 36  1  0  0  0  0
  1  3  1  0  0  0  0
  3 44  1  0  0  0  0
  1 46  1  0  0  0  0
  5 34  1  0  0  0  0
  2 32  1  0  0  0  0
  2 34  2  0  0  0  0
  2 33  1  0  0  0  0
  1 73  1  0  0  0  0
  3 74  1  0  0  0  0
  4 75  1  0  0  0  0
  6 76  1  0  0  0  0
  8 77  1  0  0  0  0
  8 78  1  0  0  0  0
 10 79  1  0  0  0  0
 10 80  1  0  0  0  0
 11 81  1  0  0  0  0
 11 82  1  0  0  0  0
 11 83  1  0  0  0  0
 12 84  1  0  0  0  0
 12 85  1  0  0  0  0
 13 86  1  0  0  0  0
 14 87  1  0  0  0  0
 15 88  1  0  0  0  0
 16 89  1  0  0  0  0
 17 90  1  0  0  0  0
 17 91  1  0  0  0  0
 20 92  1  0  0  0  0
 22 93  1  0  0  0  0
 22 94  1  0  0  0  0
 22 95  1  0  0  0  0
 23 96  1  0  0  0  0
 23 97  1  0  0  0  0
 24 98  1  0  0  0  0
 25 99  1  0  0  0  0
 26100  1  0  0  0  0
 27101  1  0  0  0  0
 30102  1  0  0  0  0
 31103  1  0  0  0  0
 32104  1  0  0  0  0
 33105  1  0  0  0  0
 33106  1  0  0  0  0
 38107  1  0  0  0  0
 39108  1  0  0  0  0
 39109  1  0  0  0  0
 43110  1  0  0  0  0
 44111  1  0  0  0  0
 45112  1  0  0  0  0
 49113  1  0  0  0  0
 53114  1  0  0  0  0
 56115  1  0  0  0  0
 62116  1  0  0  0  0
 65117  1  0  0  0  0
 66118  1  0  0  0  0
M  END
> <OPENEYE_ISO_SMILES>
CN1CN(c2c1c(=O)[nH]c(n2)N)[C@H]3[C@@H]([C@@H]([C@H](O3)CO[P@](=O)(O)O[P@](=O)(O)O[P@](=O)(O)OC[C@@H]4[C@H]([C@H]([C@@H](O4)[N@]5CNc6c5ncnc6N)OC)O[P@](=O)(O)OC[C@@H]7[C@H]([C@H]([C@H](O7)n8ccc(=O)[nH]c8=O)O)O)O)O

> <OPENEYE_INCHI>
InChI=1S/C31H46N12O25P4/c1-40-10-43(25-16(40)26(49)39-30(33)38-25)28-20(48)18(46)12(64-28)6-61-70(53,54)67-72(57,58)68-71(55,56)62-7-13-21(22(59-2)29(65-13)42-9-36-15-23(32)34-8-35-24(15)42)66-69(51,52)60-5-11-17(45)19(47)27(63-11)41-4-3-14(44)37-31(41)50/h3-4,8,11-13,17-22,27-29,36,45-48H,5-7,9-10H2,1-2H3,(H,51,52)(H,53,54)(H,55,56)(H,57,58)(H2,32,34,35)(H,37,44,50)(H3,33,38,39,49)/t11-,12-,13-,17-,18-,19-,20-,21-,22-,27+,28-,29-/m1/s1

> <OPENEYE_INCHIKEY>
POOGENYSODSFCS-SWDLWUBYSA-N

> <FORMULA>
C31H46N12O25P4

$$$$
