@<TRIPOS>MOLECULE
/home/pku/3cl/gett_pdb/5RH0/5RH0_mol2/ligand/5RH0_UH4.pdb
 16 17 0 0 0
SMALL
GASTEIGER

@<TRIPOS>ATOM
      1  N1         7.2310   -0.6870   20.7290 N.am  1001  UH41001    -0.1591
      2  C4        10.3290   -0.4120   22.5720 C.ar  1001  UH41001     0.1041
      3  C5         8.4180   -0.1510   21.1290 C.2   1001  UH41001     0.3483
      4  C6         6.3510   -0.0600   19.8250 C.ar  1001  UH41001     0.0941
      5  C7         5.2200    0.6110   20.2720 C.ar  1001  UH41001     0.0198
      6  C8         4.4820    1.3660   19.3780 C.ar  1001  UH41001     0.0220
      7  C10        6.6710    0.0310   18.4710 C.ar  1001  UH41001     0.1154
      8  O          8.8480    0.9150   20.6980 O.2   1001  UH41001    -0.2484
      9  N          9.1120   -0.8790   22.0820 N.am  1001  UH41001    -0.1541
     10  C3        11.2400   -1.1440   23.2730 C.ar  1001  UH41001     0.0235
     11  C2        12.4180   -0.4160   23.5510 C.ar  1001  UH41001     0.0041
     12  S         10.9120    1.1890   22.2760 S.2   1001  UH41001    -0.0747
     13  C1        12.4080    0.8560   23.0670 C.ar  1001  UH41001     0.0089
     14  C         13.4940    1.8800   23.0930 C.3   1001  UH41001     0.0382
     15  N2         5.9580    0.7460   17.5930 N.ar  1001  UH41001    -0.2410
     16  C9         4.8910    1.4070   18.0590 C.ar  1001  UH41001     0.0990
@<TRIPOS>BOND
     1    15    16   ar
     2    15     7   ar
     3    16     6   ar
     4     7     4   ar
     5     6     5   ar
     6     4     5   ar
     7     4     1    1
     8     8     3    2
     9     1     3   am
    10     3     9   am
    11     9     2    1
    12    12     2   ar
    13    12    13   ar
    14     2    10   ar
    15    13    14    1
    16    13    11   ar
    17    10    11   ar
