B1S
  -OEChem-02242320013D

 64 65  0     1  0  0  0  0  0999 V2000
    5.2050    0.3630    0.8220 C   0  0  0  0  0  0  0  0  0  0  0  0
    3.9750    0.4720    0.0580 O   0  0  0  0  0  0  0  0  0  0  0  0
    2.8280    0.5660    0.7550 C   0  0  0  0  0  0  0  0  0  0  0  0
    2.8520    0.5570    1.9700 O   0  0  0  0  0  0  0  0  0  0  0  0
    6.3760    0.2680   -0.1200 C   0  0  0  0  0  0  0  0  0  0  0  0
    7.0160    1.4180   -0.5460 C   0  0  0  0  0  0  0  0  0  0  0  0
    8.0900    1.3310   -1.4110 C   0  0  0  0  0  0  0  0  0  0  0  0
    8.5260    0.0950   -1.8500 C   0  0  0  0  0  0  0  0  0  0  0  0
    7.8870   -1.0540   -1.4240 C   0  0  0  0  0  0  0  0  0  0  0  0
    6.8160   -0.9680   -0.5550 C   0  0  0  0  0  0  0  0  0  0  0  0
    1.6510    0.6700    0.1060 N   0  0  0  0  0  0  0  0  0  0  0  0
    0.3950    0.6620    0.8600 C   0  0  2  0  0  0  0  0  0  0  0  0
   -0.7070    0.1100   -0.0070 C   0  0  0  0  0  0  0  0  0  0  0  0
   -0.5350   -0.0170   -1.2000 O   0  0  0  0  0  0  0  0  0  0  0  0
    0.0450    2.0900    1.2830 C   0  0  0  0  0  0  0  0  0  0  0  0
   -1.1790    2.0640    2.2010 C   0  0  0  0  0  0  0  0  0  0  0  0
   -0.8190    1.3610    3.5110 C   0  0  0  0  0  0  0  0  0  0  0  0
   -1.6250    3.4970    2.4970 C   0  0  0  0  0  0  0  0  0  0  0  0
   -1.8850   -0.2440    0.5450 N   0  0  0  0  0  0  0  0  0  0  0  0
   -2.9190   -0.8770   -0.2780 C   0  0  2  0  0  0  0  0  0  0  0  0
   -2.3650   -2.1630   -0.8930 C   0  0  2  0  0  0  0  0  0  0  0  0
   -3.3610   -2.7600   -1.7250 O   0  0  0  0  0  0  0  0  0  0  0  0
   -3.3400    0.0820   -1.3930 C   0  0  0  0  0  0  0  0  0  0  0  0
   -3.9670    1.3360   -0.7790 C   0  0  2  0  0  0  0  0  0  0  0  0
   -5.2890    0.9830   -0.0600 C   0  0  0  0  0  0  0  0  0  0  0  0
   -6.1550    2.2250   -0.3670 C   0  0  0  0  0  0  0  0  0  0  0  0
   -5.6110    2.7840   -1.6100 N   0  0  0  0  0  0  0  0  0  0  0  0
   -4.3810    2.3060   -1.8630 C   0  0  0  0  0  0  0  0  0  0  0  0
   -3.7010    2.6090   -2.8210 O   0  0  0  0  0  0  0  0  0  0  0  0
    5.3180    1.2420    1.4560 H   0  0  0  0  0  0  0  0  0  0  0  0
    5.1670   -0.5310    1.4450 H   0  0  0  0  0  0  0  0  0  0  0  0
    6.6750    2.3840   -0.2030 H   0  0  0  0  0  0  0  0  0  0  0  0
    8.5890    2.2290   -1.7440 H   0  0  0  0  0  0  0  0  0  0  0  0
    9.3660    0.0280   -2.5260 H   0  0  0  0  0  0  0  0  0  0  0  0
    8.2280   -2.0200   -1.7680 H   0  0  0  0  0  0  0  0  0  0  0  0
    6.3190   -1.8660   -0.2200 H   0  0  0  0  0  0  0  0  0  0  0  0
    1.6360    0.7500   -0.8610 H   0  0  0  0  0  0  0  0  0  0  0  0
    0.5080    0.0380    1.7460 H   0  0  0  0  0  0  0  0  0  0  0  0
    0.8890    2.5290    1.8150 H   0  0  0  0  0  0  0  0  0  0  0  0
   -0.1770    2.6870    0.3980 H   0  0  0  0  0  0  0  0  0  0  0  0
   -1.9900    1.5260    1.7100 H   0  0  0  0  0  0  0  0  0  0  0  0
   -0.4370    0.3630    3.2950 H   0  0  0  0  0  0  0  0  0  0  0  0
   -0.0560    1.9360    4.0350 H   0  0  0  0  0  0  0  0  0  0  0  0
   -1.7080    1.2820    4.1370 H   0  0  0  0  0  0  0  0  0  0  0  0
   -1.8810    3.9990    1.5630 H   0  0  0  0  0  0  0  0  0  0  0  0
   -2.4970    3.4790    3.1510 H   0  0  0  0  0  0  0  0  0  0  0  0
   -0.8140    4.0360    2.9870 H   0  0  0  0  0  0  0  0  0  0  0  0
   -2.0480   -0.0800    1.4870 H   0  0  0  0  0  0  0  0  0  0  0  0
   -3.7830   -1.1140    0.3430 H   0  0  0  0  0  0  0  0  0  0  0  0
   -1.4840   -1.9300   -1.4910 H   0  0  0  0  0  0  0  0  0  0  0  0
   -3.6530   -2.1980   -2.4550 H   0  0  0  0  0  0  0  0  0  0  0  0
   -2.4660    0.3630   -1.9800 H   0  0  0  0  0  0  0  0  0  0  0  0
   -4.0690   -0.4090   -2.0380 H   0  0  0  0  0  0  0  0  0  0  0  0
   -3.2700    1.8090   -0.0860 H   0  0  0  0  0  0  0  0  0  0  0  0
   -5.7350    0.0830   -0.4820 H   0  0  0  0  0  0  0  0  0  0  0  0
   -5.1330    0.8720    1.0130 H   0  0  0  0  0  0  0  0  0  0  0  0
   -7.1960    1.9330   -0.5080 H   0  0  0  0  0  0  0  0  0  0  0  0
   -6.0730    2.9510    0.4410 H   0  0  0  0  0  0  0  0  0  0  0  0
   -6.0800    3.4170   -2.1760 H   0  0  0  0  0  0  0  0  0  0  0  0
   -1.9100   -3.3190    0.4290 S   0  0  0  0  0  0  0  0  0  0  0  0
   -3.0240   -3.5750    1.2730 O   0  0  0  0  0  0  0  0  0  0  0  0
   -1.1210   -4.3820   -0.0870 O   0  0  0  0  0  0  0  0  0  0  0  0
   -0.9480   -2.5310    1.3080 O   0  0  0  0  0  0  0  0  0  0  0  0
   -0.6140   -3.0260    2.0680 H   0  0  0  0  0  0  0  0  0  0  0  0
 16 17  1  0  0  0  0
 16 18  1  0  0  0  0
 15 16  1  0  0  0  0
 12 15  1  0  0  0  0
 11 12  1  0  0  0  0
  3 11  1  0  0  0  0
 12 13  1  0  0  0  0
  2  3  1  0  0  0  0
  1  2  1  0  0  0  0
  3  4  2  0  0  0  0
  1  5  1  0  0  0  0
 13 14  2  0  0  0  0
 13 19  1  0  0  0  0
 19 20  1  0  0  0  0
  5  6  2  0  0  0  0
  5 10  1  0  0  0  0
  6  7  1  0  0  0  0
 21 22  1  0  0  0  0
  9 10  2  0  0  0  0
 20 21  1  0  0  0  0
 20 23  1  0  0  0  0
  7  8  2  0  0  0  0
  8  9  1  0  0  0  0
 23 24  1  0  0  0  0
 24 25  1  0  0  0  0
 24 28  1  0  0  0  0
 25 26  1  0  0  0  0
 28 29  2  0  0  0  0
 27 28  1  0  0  0  0
 26 27  1  0  0  0  0
  1 30  1  0  0  0  0
  1 31  1  0  0  0  0
  6 32  1  0  0  0  0
  7 33  1  0  0  0  0
  8 34  1  0  0  0  0
  9 35  1  0  0  0  0
 10 36  1  0  0  0  0
 11 37  1  0  0  0  0
 12 38  1  0  0  0  0
 15 39  1  0  0  0  0
 15 40  1  0  0  0  0
 16 41  1  0  0  0  0
 17 42  1  0  0  0  0
 17 43  1  0  0  0  0
 17 44  1  0  0  0  0
 18 45  1  0  0  0  0
 18 46  1  0  0  0  0
 18 47  1  0  0  0  0
 19 48  1  0  0  0  0
 20 49  1  0  0  0  0
 21 50  1  0  0  0  0
 22 51  1  0  0  0  0
 23 52  1  0  0  0  0
 23 53  1  0  0  0  0
 24 54  1  0  0  0  0
 25 55  1  0  0  0  0
 25 56  1  0  0  0  0
 26 57  1  0  0  0  0
 26 58  1  0  0  0  0
 27 59  1  0  0  0  0
 21 60  1  0  0  0  0
 60 61  2  0  0  0  0
 60 62  2  0  0  0  0
 60 63  1  0  0  0  0
 63 64  1  0  0  0  0
M  END
> <OPENEYE_ISO_SMILES>
CC(C)C[C@@H](C(=O)N[C@@H](C[C@@H]1CCNC1=O)[C@H](O)S(=O)(=O)O)NC(=O)OCc2ccccc2

> <OPENEYE_INCHI>
InChI=1S/C21H31N3O8S/c1-13(2)10-16(24-21(28)32-12-14-6-4-3-5-7-14)19(26)23-17(20(27)33(29,30)31)11-15-8-9-22-18(15)25/h3-7,13,15-17,20,27H,8-12H2,1-2H3,(H,22,25)(H,23,26)(H,24,28)(H,29,30,31)/t15-,16-,17-,20+/m0/s1

> <OPENEYE_INCHIKEY>
BSPZFJDYQHDZNR-OGNFBWPZSA-N

> <FORMULA>
C21H31N3O8S

$$$$
