@<TRIPOS>MOLECULE
/home/pku/3cl/gett_pdb/8E6E/8E6E_mol2/ligand/8E6E_UUR.pdb
 31 32 0 0 0
SMALL
GASTEIGER

@<TRIPOS>ATOM
      1  N1       -21.6080   24.6380    1.2470 N.am  401  UUR401     -0.1611
      2  C4       -20.4670   26.5210   -0.7490 C.3   401  UUR401      0.0022
      3  C5       -20.8450   27.4930   -1.8560 C.3   401  UUR401      0.0001
      4  C6       -18.9560   26.4440   -0.6050 C.3   401  UUR401      0.0001
      5  C7       -21.5170   26.3510    3.0090 C.2   401  UUR401      0.2614
      6  C8       -21.0650   27.4350    5.1580 C.3   401  UUR401      0.1287
      7  C10      -21.0050   25.2590    6.4580 C.3   401  UUR401      0.0818
      8  C13      -22.4800   25.2230    6.8340 C.3   401  UUR401      0.0326
      9  C1       -21.4020   23.5010    1.9270 C.2   401  UUR401      0.4215
     10  C11      -20.3390   24.4600    7.5620 C.2   401  UUR401      0.2410
     11  C12      -22.6120   23.9850    7.7120 C.3   401  UUR401      0.1156
     12  C2       -20.9600   25.8620    1.6710 C.3   401  UUR401      0.1761
     13  C3       -21.1110   26.9160    0.5780 C.3   401  UUR401      0.0312
     14  C9       -20.4200   26.6610    6.3090 C.3   401  UUR401      0.0335
     15  O1       -20.5730   23.3620    2.7990 O.2   401  UUR401     -0.2246
     16  O2       -19.1140   24.3590    7.7310 O.2   401  UUR401     -0.2734
     17  C14      -20.7300   28.9140    5.2140 C.3   401  UUR401      0.2036
     18  C15      -21.9640   21.1950    1.9280 C.3   401  UUR401      0.2221
     19  C16      -22.6430   20.3030    0.9330 C.3   401  UUR401      0.1096
     20  C17      -20.4450   19.4270   -0.5760 C.ar  401  UUR401      0.0253
     21  C18      -19.1970   19.9870   -0.8210 C.ar  401  UUR401      0.0062
     22  C19      -18.0530   19.2110   -0.7140 C.ar  401  UUR401      0.0005
     23  C20      -18.1430   17.8820   -0.3680 C.ar  401  UUR401      0.0000
     24  C21      -19.3730   17.3200   -0.1240 C.ar  401  UUR401      0.0005
     25  C22      -20.5260   18.0820   -0.2270 C.ar  401  UUR401      0.0062
     26  N2       -20.6480   26.8750    3.8740 N.am  401  UUR401     -0.2030
     27  N3       -21.2780   23.8700    8.2930 N.am  401  UUR401     -0.2054
     28  O3       -21.2280   29.5030    6.4090 O.3   401  UUR401     -0.2185
     29  O4       -22.7100   26.2200    3.2700 O.2   401  UUR401     -0.2715
     30  O5       -22.2290   22.5470    1.4750 O.3   401  UUR401     -0.4326
     31  S1       -21.8970   20.4070   -0.7190 S.3   401  UUR401     -0.1097
@<TRIPOS>BOND
     1     3     2    1
     2    21    22   ar
     3    21    20   ar
     4     2     4    1
     5     2    13    1
     6    31    20    1
     7    31    19    1
     8    22    23   ar
     9    20    25   ar
    10    23    24   ar
    11    25    24   ar
    12    13    12    1
    13    19    18    1
    14     1    12    1
    15     1     9   am
    16    30     9    1
    17    30    18    1
    18    12     5    1
    19     9    15    2
    20     5    29    2
    21     5    26   am
    22    26     6    1
    23     6    17    1
    24     6    14    1
    25    17    28    1
    26    14     7    1
    27     7     8    1
    28     7    10    1
    29     8    11    1
    30    10    16    2
    31    10    27   am
    32    11    27    1
