@<TRIPOS>MOLECULE
/home/pku/3cl/gett_pdb/5RSM/5RSM_mol2/ligand/5RSM_4SO.pdb
 19 19 0 0 0
SMALL
GASTEIGER

@<TRIPOS>ATOM
      1  OAA      -46.9280  -27.4000   -1.2450 O.2   201  4SO201     -0.1533
      2  OAB      -43.9640  -32.6140    2.5140 O.co2 201  4SO201     -0.8441
      3  CAC      -43.5830  -29.1560    2.0320 C.ar  201  4SO201     -0.0503
      4  CAD      -44.1250  -28.1010    1.3220 C.ar  201  4SO201     -0.0347
      5  CAE      -45.2320  -28.3630    0.5660 C.ar  201  4SO201      0.1050
      6  SAF      -45.9500  -27.0170   -0.3400 S.O2  201  4SO201      0.0559
      7  NAG      -44.7730  -26.2270   -1.1910 N.3   201  4SO201     -0.2035
      8  CAH      -43.6500  -31.4880    2.8240 C.2   201  4SO201      0.1186
      9  CAI      -44.2230  -30.3960    1.9990 C.ar  201  4SO201      0.0073
     10  CAJ      -45.3510  -30.6160    1.2330 C.ar  201  4SO201     -0.0503
     11  CAK      -45.8410  -29.5660    0.5150 C.ar  201  4SO201     -0.0347
     12  OAL      -46.4840  -26.1100    0.6410 O.2   201  4SO201     -0.1533
     13  OAM      -42.9120  -31.2120    3.8030 O.co2 201  4SO201     -0.3036
     14  HAC      -42.8370  -29.0260    2.5720 H     201  4SO201      0.0625
     15  HAD      -43.7320  -27.2580    1.3310 H     201  4SO201      0.0637
     16 HNAG      -44.3920  -26.6130   -1.8580 H     201  4SO201      0.1442
     17 HNAA      -44.5420  -25.4300   -0.9670 H     201  4SO201      0.1442
     18  HAJ      -45.7640  -31.4490    1.2120 H     201  4SO201      0.0625
     19  HAK      -46.6110  -29.6740    0.0040 H     201  4SO201      0.0637
@<TRIPOS>UNITY_ATOM_ATTR
2 1
charge -1
@<TRIPOS>BOND
     1    16     7    1
     2     1     6    2
     3     7    17    1
     4     7     6    1
     5     6     5    1
     6     6    12    2
     7    19    11    1
     8    11     5   ar
     9    11    10   ar
    10     5     4   ar
    11    18    10    1
    12    10     9   ar
    13     4    15    1
    14     4     3   ar
    15     9     3   ar
    16     9     8    1
    17     3    14    1
    18     2     8   ar
    19     8    13   ar
