3A7
  -OEChem-02242320003D

 59 62  0     1  0  0  0  0  0999 V2000
    1.3340    0.0860    1.3440 C   0  0  0  0  0  0  0  0  0  0  0  0
    1.6000   -0.4650    0.0890 C   0  0  0  0  0  0  0  0  0  0  0  0
    2.9020   -0.5650   -0.3540 C   0  0  0  0  0  0  0  0  0  0  0  0
    3.9440   -0.1210    0.4420 C   0  0  0  0  0  0  0  0  0  0  0  0
    3.6860    0.4260    1.6880 C   0  0  0  0  0  0  0  0  0  0  0  0
    2.3880    0.5370    2.1400 C   0  0  0  0  0  0  0  0  0  0  0  0
   -0.6800    1.1790   -0.3300 C   0  0  0  0  0  0  0  0  0  0  0  0
   -5.0200   -2.1920    2.0870 O   0  0  0  0  0  0  0  0  0  0  0  0
   -4.9530   -2.6070    0.9550 C   0  0  0  0  0  0  0  0  0  0  0  0
   -3.7930   -2.2160    0.0760 C   0  0  2  0  0  0  0  0  0  0  0  0
   -3.0360   -3.4730   -0.3570 C   0  0  0  0  0  0  0  0  0  0  0  0
   -1.9510   -3.0950   -1.3330 C   0  0  0  0  0  0  0  0  0  0  0  0
   -0.6380   -2.8460   -1.0380 N   0  0  0  0  0  0  0  0  0  0  0  0
   -0.0180   -2.5450   -2.1990 C   0  0  0  0  0  0  0  0  0  0  0  0
   -0.8910   -2.6010   -3.1670 N   0  0  0  0  0  0  0  0  0  0  0  0
   -2.0870   -2.9420   -2.6640 C   0  0  0  0  0  0  0  0  0  0  0  0
   -2.8880   -1.3320    0.8240 N   0  0  0  0  0  0  0  0  0  0  0  0
   -3.3350    0.0650    0.7470 C   0  0  0  0  0  0  0  0  0  0  0  0
   -2.3700    0.9530    1.5360 C   0  0  2  0  0  0  0  0  0  0  0  0
   -2.7540    2.4240    1.3460 C   0  0  0  0  0  0  0  0  0  0  0  0
   -2.5550    2.8180   -0.1250 C   0  0  1  0  0  0  0  0  0  0  0  0
   -2.9690    4.2790   -0.3150 C   0  0  0  0  0  0  0  0  0  0  0  0
   -2.7690    4.6830   -1.7760 C   0  0  0  0  0  0  0  0  0  0  0  0
   -1.2940    4.5200   -2.1510 C   0  0  0  0  0  0  0  0  0  0  0  0
   -0.8800    3.0520   -1.9660 C   0  0  0  0  0  0  0  0  0  0  0  0
   -1.0820    2.6470   -0.5040 C   0  0  2  0  0  0  0  0  0  0  0  0
   -1.0010    0.7550    1.0390 N   0  0  0  0  0  0  0  0  0  0  0  0
   -0.0600    0.1960    1.8250 C   0  0  0  0  0  0  0  0  0  0  0  0
   -0.3560   -0.2170    2.9290 O   0  0  0  0  0  0  0  0  0  0  0  0
    5.7260   -0.2620   -0.1730 Br  0  0  0  0  0  0  0  0  0  0  0  0
    0.7880   -0.8130   -0.5330 H   0  0  0  0  0  0  0  0  0  0  0  0
    3.1100   -0.9910   -1.3250 H   0  0  0  0  0  0  0  0  0  0  0  0
    4.5030    0.7700    2.3050 H   0  0  0  0  0  0  0  0  0  0  0  0
    2.1870    0.9680    3.1100 H   0  0  0  0  0  0  0  0  0  0  0  0
   -1.2300    0.5630   -1.0410 H   0  0  0  0  0  0  0  0  0  0  0  0
    0.3900    1.0700   -0.5040 H   0  0  0  0  0  0  0  0  0  0  0  0
   -5.7250   -3.2570    0.5720 H   0  0  0  0  0  0  0  0  0  0  0  0
   -4.1650   -1.6940   -0.8050 H   0  0  0  0  0  0  0  0  0  0  0  0
   -2.5890   -3.9470    0.5170 H   0  0  0  0  0  0  0  0  0  0  0  0
   -3.7270   -4.1680   -0.8340 H   0  0  0  0  0  0  0  0  0  0  0  0
   -0.2290   -2.8800   -0.1590 H   0  0  0  0  0  0  0  0  0  0  0  0
    1.0280   -2.2970   -2.3080 H   0  0  0  0  0  0  0  0  0  0  0  0
   -3.0000   -3.0650   -3.2270 H   0  0  0  0  0  0  0  0  0  0  0  0
   -1.9390   -1.4270    0.4960 H   0  0  0  0  0  0  0  0  0  0  0  0
   -3.3530    0.3840   -0.2950 H   0  0  0  0  0  0  0  0  0  0  0  0
   -4.3360    0.1500    1.1710 H   0  0  0  0  0  0  0  0  0  0  0  0
   -2.4170    0.6940    2.5930 H   0  0  0  0  0  0  0  0  0  0  0  0
   -3.7990    2.5650    1.6230 H   0  0  0  0  0  0  0  0  0  0  0  0
   -2.1220    3.0480    1.9770 H   0  0  0  0  0  0  0  0  0  0  0  0
   -3.1700    2.1800   -0.7590 H   0  0  0  0  0  0  0  0  0  0  0  0
   -4.0190    4.3960   -0.0460 H   0  0  0  0  0  0  0  0  0  0  0  0
   -2.3580    4.9160    0.3250 H   0  0  0  0  0  0  0  0  0  0  0  0
   -3.3790    4.0450   -2.4170 H   0  0  0  0  0  0  0  0  0  0  0  0
   -3.0660    5.7230   -1.9100 H   0  0  0  0  0  0  0  0  0  0  0  0
   -1.1490    4.8100   -3.1920 H   0  0  0  0  0  0  0  0  0  0  0  0
   -0.6840    5.1550   -1.5080 H   0  0  0  0  0  0  0  0  0  0  0  0
   -1.4920    2.4190   -2.6080 H   0  0  0  0  0  0  0  0  0  0  0  0
    0.1700    2.9340   -2.2340 H   0  0  0  0  0  0  0  0  0  0  0  0
   -0.4650    3.2730    0.1400 H   0  0  0  0  0  0  0  0  0  0  0  0
  2  3  2  0  0  0  0
  3  4  1  0  0  0  0
  1  2  1  0  0  0  0
 28 29  2  0  0  0  0
  4 30  1  0  0  0  0
  4  5  2  0  0  0  0
  1 28  1  0  0  0  0
  1  6  2  0  0  0  0
 27 28  1  0  0  0  0
 22 23  1  0  0  0  0
 21 22  1  0  0  0  0
 19 20  1  0  0  0  0
 20 21  1  0  0  0  0
 19 27  1  0  0  0  0
  7 27  1  0  0  0  0
 21 26  1  0  0  0  0
  7 26  1  0  0  0  0
 25 26  1  0  0  0  0
  5  6  1  0  0  0  0
 23 24  1  0  0  0  0
 24 25  1  0  0  0  0
 18 19  1  0  0  0  0
 15 16  1  0  0  0  0
 14 15  2  0  0  0  0
 12 16  2  0  0  0  0
 13 14  1  0  0  0  0
 17 18  1  0  0  0  0
 10 17  1  0  0  0  0
 12 13  1  0  0  0  0
 11 12  1  0  0  0  0
 10 11  1  0  0  0  0
  9 10  1  0  0  0  0
  8  9  2  0  0  0  0
  2 31  1  0  0  0  0
  3 32  1  0  0  0  0
  5 33  1  0  0  0  0
  6 34  1  0  0  0  0
  7 35  1  0  0  0  0
  7 36  1  0  0  0  0
  9 37  1  0  0  0  0
 10 38  1  0  0  0  0
 11 39  1  0  0  0  0
 11 40  1  0  0  0  0
 13 41  1  0  0  0  0
 14 42  1  0  0  0  0
 16 43  1  0  0  0  0
 17 44  1  0  0  0  0
 18 45  1  0  0  0  0
 18 46  1  0  0  0  0
 19 47  1  0  0  0  0
 20 48  1  0  0  0  0
 20 49  1  0  0  0  0
 21 50  1  0  0  0  0
 22 51  1  0  0  0  0
 22 52  1  0  0  0  0
 23 53  1  0  0  0  0
 23 54  1  0  0  0  0
 24 55  1  0  0  0  0
 24 56  1  0  0  0  0
 25 57  1  0  0  0  0
 25 58  1  0  0  0  0
 26 59  1  0  0  0  0
M  END
> <OPENEYE_ISO_SMILES>
c1cc(ccc1C(=O)N2C[C@H]3CCCC[C@@H]3C[C@H]2CN[C@@H](Cc4cnc[nH]4)C=O)Br

> <OPENEYE_INCHI>
InChI=1S/C23H29BrN4O2/c24-19-7-5-16(6-8-19)23(30)28-13-18-4-2-1-3-17(18)9-22(28)12-26-21(14-29)10-20-11-25-15-27-20/h5-8,11,14-15,17-18,21-22,26H,1-4,9-10,12-13H2,(H,25,27)/t17-,18-,21+,22+/m1/s1

> <OPENEYE_INCHIKEY>
SKLHMRHVVDDIOX-UBBRYJJRSA-N

> <FORMULA>
C23H29BrN4O2

$$$$
