VW7
  -OEChem-02242320043D

 31 32  0     0  0  0  0  0  0999 V2000
    1.9620    0.5780   -0.4230 N   0  0  0  0  0  0  0  0  0  0  0  0
    0.8230   -1.5440   -0.3100 C   0  0  0  0  0  0  0  0  0  0  0  0
   -0.3440   -2.2700   -0.1720 C   0  0  0  0  0  0  0  0  0  0  0  0
   -1.5480   -1.6170   -0.0090 C   0  0  0  0  0  0  0  0  0  0  0  0
   -2.8170   -2.4150    0.1410 C   0  0  0  0  0  0  0  0  0  0  0  0
   -1.6010   -0.2210    0.0180 C   0  0  0  0  0  0  0  0  0  0  0  0
   -1.7490    2.5340    0.4460 C   0  0  0  0  0  0  0  0  0  0  0  0
    4.3660    0.9440    0.0290 C   0  0  0  0  0  0  0  0  0  0  0  0
    3.1150    0.1070    0.0910 C   0  0  0  0  0  0  0  0  0  0  0  0
    3.1460   -0.9920    0.6040 O   0  0  0  0  0  0  0  0  0  0  0  0
    0.7800   -0.1570   -0.2820 C   0  0  0  0  0  0  0  0  0  0  0  0
   -2.8490    0.3750    0.1930 N   0  0  0  0  0  0  0  0  0  0  0  0
   -2.8860    1.7710   -0.2460 C   0  0  0  0  0  0  0  0  0  0  0  0
   -0.4240    2.0140   -0.1210 C   0  0  0  0  0  0  0  0  0  0  0  0
   -0.4330    0.5060   -0.1240 C   0  0  0  0  0  0  0  0  0  0  0  0
    1.9510    1.4290   -0.8880 H   0  0  0  0  0  0  0  0  0  0  0  0
    1.7660   -2.0540   -0.4350 H   0  0  0  0  0  0  0  0  0  0  0  0
   -0.3140   -3.3490   -0.1910 H   0  0  0  0  0  0  0  0  0  0  0  0
   -2.9930   -2.6220    1.1970 H   0  0  0  0  0  0  0  0  0  0  0  0
   -3.6540   -1.8460   -0.2620 H   0  0  0  0  0  0  0  0  0  0  0  0
   -2.7210   -3.3550   -0.4020 H   0  0  0  0  0  0  0  0  0  0  0  0
   -1.8430    3.6000    0.2420 H   0  0  0  0  0  0  0  0  0  0  0  0
   -1.7890    2.3590    1.5210 H   0  0  0  0  0  0  0  0  0  0  0  0
    4.9030    0.7280   -0.8950 H   0  0  0  0  0  0  0  0  0  0  0  0
    4.0980    2.0000    0.0550 H   0  0  0  0  0  0  0  0  0  0  0  0
    5.0030    0.7100    0.8820 H   0  0  0  0  0  0  0  0  0  0  0  0
   -3.1600    0.2880    1.1490 H   0  0  0  0  0  0  0  0  0  0  0  0
   -3.8430    2.2150    0.0260 H   0  0  0  0  0  0  0  0  0  0  0  0
   -2.7530    1.8180   -1.3270 H   0  0  0  0  0  0  0  0  0  0  0  0
   -0.2950    2.3840   -1.1380 H   0  0  0  0  0  0  0  0  0  0  0  0
    0.3990    2.3660    0.5000 H   0  0  0  0  0  0  0  0  0  0  0  0
  8  9  1  0  0  0  0
  9 10  2  0  0  0  0
  1  9  1  0  0  0  0
  1 11  1  0  0  0  0
  7 14  1  0  0  0  0
 14 15  1  0  0  0  0
  7 13  1  0  0  0  0
 11 15  2  0  0  0  0
  2 11  1  0  0  0  0
  6 15  1  0  0  0  0
 12 13  1  0  0  0  0
  2  3  2  0  0  0  0
  6 12  1  0  0  0  0
  4  6  2  0  0  0  0
  3  4  1  0  0  0  0
  4  5  1  0  0  0  0
  1 16  1  0  0  0  0
  2 17  1  0  0  0  0
  3 18  1  0  0  0  0
  5 19  1  0  0  0  0
  5 20  1  0  0  0  0
  5 21  1  0  0  0  0
  7 22  1  0  0  0  0
  7 23  1  0  0  0  0
  8 24  1  0  0  0  0
  8 25  1  0  0  0  0
  8 26  1  0  0  0  0
 12 27  1  0  0  0  0
 13 28  1  0  0  0  0
 13 29  1  0  0  0  0
 14 30  1  0  0  0  0
 14 31  1  0  0  0  0
M  END
> <OPENEYE_ISO_SMILES>
Cc1ccc(c2c1NCCC2)NC(=O)C

> <OPENEYE_INCHI>
InChI=1S/C12H16N2O/c1-8-5-6-11(14-9(2)15)10-4-3-7-13-12(8)10/h5-6,13H,3-4,7H2,1-2H3,(H,14,15)

> <OPENEYE_INCHIKEY>
RYRDUZSMONMBBE-UHFFFAOYSA-N

> <FORMULA>
C12H16N2O

$$$$
