YKM
  -OEChem-02242320043D

 73 74  0     1  0  0  0  0  0999 V2000
   -4.3110    3.1980    0.8410 C   0  0  0  0  0  0  0  0  0  0  0  0
   -4.3610    1.6750    0.9790 C   0  0  1  0  0  0  0  0  0  0  0  0
   -2.1240    0.8870    0.7140 C   0  0  0  0  0  0  0  0  0  0  0  0
    0.1890    0.1280    0.6140 C   0  0  1  0  0  0  0  0  0  0  0  0
    0.1930   -1.2050    1.3650 C   0  0  0  0  0  0  0  0  0  0  0  0
   -0.7960   -1.1370    2.5310 C   0  0  0  0  0  0  0  0  0  0  0  0
   -0.8850   -2.5070    3.2050 C   0  0  0  0  0  0  0  0  0  0  0  0
   -0.3150   -0.0990    3.5470 C   0  0  0  0  0  0  0  0  0  0  0  0
    1.2500    0.1050   -0.4560 C   0  0  0  0  0  0  0  0  0  0  0  0
    3.5730   -0.1000   -1.1620 C   0  0  1  0  0  0  0  0  0  0  0  0
    4.8810    0.4580   -0.5970 C   0  0  0  0  0  0  0  0  0  0  0  0
    4.6860    1.9270   -0.2140 C   0  0  1  0  0  0  0  0  0  0  0  0
    5.9660    2.5010    0.3510 C   0  0  0  0  0  0  0  0  0  0  0  0
    5.1520    4.0930   -1.1330 C   0  0  0  0  0  0  0  0  0  0  0  0
    4.4100    2.7820   -1.4730 C   0  0  0  0  0  0  0  0  0  0  0  0
    3.7930   -1.5390   -1.6300 C   0  0  2  0  0  0  0  0  0  0  0  0
   -5.7330    1.1670    0.5310 C   0  0  0  0  0  0  0  0  0  0  0  0
   -5.8280   -0.3380    0.7850 C   0  0  0  0  0  0  0  0  0  0  0  0
   -7.2000   -0.8460    0.3380 C   0  0  0  0  0  0  0  0  0  0  0  0
   -7.3840   -0.5690   -1.1560 C   0  0  0  0  0  0  0  0  0  0  0  0
   -7.2890    0.9370   -1.4100 C   0  0  0  0  0  0  0  0  0  0  0  0
   -5.9170    1.4450   -0.9620 C   0  0  0  0  0  0  0  0  0  0  0  0
   -6.3840   -1.2270   -1.8790 F   0  0  0  0  0  0  0  0  0  0  0  0
   -8.6380   -1.0330   -1.5650 F   0  0  0  0  0  0  0  0  0  0  0  0
   -1.1230    0.3380   -0.0020 N   0  0  0  0  0  0  0  0  0  0  0  0
    2.5420   -0.0770   -0.1210 N   0  0  0  0  0  0  0  0  0  0  0  0
    6.2060    3.7110   -0.1840 N   0  0  0  0  0  0  0  0  0  0  0  0
   -3.3300    1.0800    0.1480 O   0  0  0  0  0  0  0  0  0  0  0  0
    6.6730    1.9510    1.1680 O   0  0  0  0  0  0  0  0  0  0  0  0
    2.6060   -2.0210   -2.2630 O   0  0  0  0  0  0  0  0  0  0  0  0
    0.9400    0.2490   -1.6200 O   0  0  0  0  0  0  0  0  0  0  0  0
   -1.9380    1.2070    1.8720 O   0  0  0  0  0  0  0  0  0  0  0  0
   -5.0850    3.6450    1.4650 H   0  0  0  0  0  0  0  0  0  0  0  0
   -3.3340    3.5600    1.1600 H   0  0  0  0  0  0  0  0  0  0  0  0
   -4.4790    3.4740   -0.2000 H   0  0  0  0  0  0  0  0  0  0  0  0
   -4.1930    1.3990    2.0200 H   0  0  0  0  0  0  0  0  0  0  0  0
    0.3960    0.9390    1.3130 H   0  0  0  0  0  0  0  0  0  0  0  0
   -0.1010   -2.0050    0.6860 H   0  0  0  0  0  0  0  0  0  0  0  0
    1.1940   -1.4030    1.7490 H   0  0  0  0  0  0  0  0  0  0  0  0
   -1.7790   -0.8510    2.1570 H   0  0  0  0  0  0  0  0  0  0  0  0
    0.0980   -2.7930    3.5780 H   0  0  0  0  0  0  0  0  0  0  0  0
   -1.5900   -2.4580    4.0350 H   0  0  0  0  0  0  0  0  0  0  0  0
   -1.2280   -3.2470    2.4810 H   0  0  0  0  0  0  0  0  0  0  0  0
   -0.2520    0.8780    3.0670 H   0  0  0  0  0  0  0  0  0  0  0  0
   -1.0200   -0.0500    4.3770 H   0  0  0  0  0  0  0  0  0  0  0  0
    0.6680   -0.3850    3.9210 H   0  0  0  0  0  0  0  0  0  0  0  0
    3.2510    0.5120   -2.0050 H   0  0  0  0  0  0  0  0  0  0  0  0
    5.1680   -0.1120    0.2870 H   0  0  0  0  0  0  0  0  0  0  0  0
    5.6650    0.3800   -1.3500 H   0  0  0  0  0  0  0  0  0  0  0  0
    3.8710    2.0290    0.5020 H   0  0  0  0  0  0  0  0  0  0  0  0
    5.5930    4.5210   -2.0330 H   0  0  0  0  0  0  0  0  0  0  0  0
    4.4680    4.8050   -0.6720 H   0  0  0  0  0  0  0  0  0  0  0  0
    4.8320    2.3140   -2.3620 H   0  0  0  0  0  0  0  0  0  0  0  0
    3.3410    2.9600   -1.5970 H   0  0  0  0  0  0  0  0  0  0  0  0
    4.1840   -2.5870   -0.2010 S   0  0  0  0  0  0  0  0  0  0  0  0
    4.6200   -1.5690   -2.3390 H   0  0  0  0  0  0  0  0  0  0  0  0
   -6.5120    1.6810    1.0950 H   0  0  0  0  0  0  0  0  0  0  0  0
   -5.0490   -0.8520    0.2210 H   0  0  0  0  0  0  0  0  0  0  0  0
   -5.6960   -0.5360    1.8490 H   0  0  0  0  0  0  0  0  0  0  0  0
   -7.2670   -1.9190    0.5190 H   0  0  0  0  0  0  0  0  0  0  0  0
   -7.9790   -0.3330    0.9010 H   0  0  0  0  0  0  0  0  0  0  0  0
   -7.4210    1.1350   -2.4740 H   0  0  0  0  0  0  0  0  0  0  0  0
   -8.0680    1.4500   -0.8460 H   0  0  0  0  0  0  0  0  0  0  0  0
   -5.8500    2.5180   -1.1430 H   0  0  0  0  0  0  0  0  0  0  0  0
   -5.1380    0.9320   -1.5260 H   0  0  0  0  0  0  0  0  0  0  0  0
   -1.2710    0.0830   -0.9260 H   0  0  0  0  0  0  0  0  0  0  0  0
    2.7900   -0.1920    0.8100 H   0  0  0  0  0  0  0  0  0  0  0  0
    6.9760    4.2610    0.0290 H   0  0  0  0  0  0  0  0  0  0  0  0
    1.8270   -2.0240   -1.6890 H   0  0  0  0  0  0  0  0  0  0  0  0
    5.4590   -2.2500    0.3300 O   0  0  0  0  0  0  0  0  0  0  0  0
    3.0500   -2.7210    0.6440 O   0  0  0  0  0  0  0  0  0  0  0  0
    4.3780   -3.9770   -0.7910 O   0  0  0  0  0  0  0  0  0  0  0  0
    4.5960   -4.6540   -0.1370 H   0  0  0  0  0  0  0  0  0  0  0  0
 20 23  1  0  0  0  0
 13 29  2  0  0  0  0
 20 24  1  0  0  0  0
 19 20  1  0  0  0  0
 20 21  1  0  0  0  0
 18 19  1  0  0  0  0
 17 18  1  0  0  0  0
 21 22  1  0  0  0  0
 17 22  1  0  0  0  0
 13 27  1  0  0  0  0
 12 13  1  0  0  0  0
 14 27  1  0  0  0  0
  3 32  2  0  0  0  0
  2 17  1  0  0  0  0
  1  2  1  0  0  0  0
  2 28  1  0  0  0  0
 11 12  1  0  0  0  0
 12 15  1  0  0  0  0
  3 28  1  0  0  0  0
  3 25  1  0  0  0  0
 14 15  1  0  0  0  0
  6  8  1  0  0  0  0
 10 11  1  0  0  0  0
  4 25  1  0  0  0  0
  4  9  1  0  0  0  0
  4  5  1  0  0  0  0
 10 26  1  0  0  0  0
  9 26  1  0  0  0  0
 10 16  1  0  0  0  0
  9 31  2  0  0  0  0
  5  6  1  0  0  0  0
  6  7  1  0  0  0  0
 16 30  1  0  0  0  0
  1 33  1  0  0  0  0
  1 34  1  0  0  0  0
  1 35  1  0  0  0  0
  2 36  1  0  0  0  0
  4 37  1  0  0  0  0
  5 38  1  0  0  0  0
  5 39  1  0  0  0  0
  6 40  1  0  0  0  0
  7 41  1  0  0  0  0
  7 42  1  0  0  0  0
  7 43  1  0  0  0  0
  8 44  1  0  0  0  0
  8 45  1  0  0  0  0
  8 46  1  0  0  0  0
 10 47  1  0  0  0  0
 11 48  1  0  0  0  0
 11 49  1  0  0  0  0
 12 50  1  0  0  0  0
 14 51  1  0  0  0  0
 14 52  1  0  0  0  0
 15 53  1  0  0  0  0
 15 54  1  0  0  0  0
 16 55  1  0  0  0  0
 16 56  1  0  0  0  0
 17 57  1  0  0  0  0
 18 58  1  0  0  0  0
 18 59  1  0  0  0  0
 19 60  1  0  0  0  0
 19 61  1  0  0  0  0
 21 62  1  0  0  0  0
 21 63  1  0  0  0  0
 22 64  1  0  0  0  0
 22 65  1  0  0  0  0
 25 66  1  0  0  0  0
 26 67  1  0  0  0  0
 27 68  1  0  0  0  0
 30 69  1  0  0  0  0
 55 70  2  0  0  0  0
 55 71  2  0  0  0  0
 55 72  1  0  0  0  0
 72 73  1  0  0  0  0
M  END
> <OPENEYE_ISO_SMILES>
C[C@@H](C1CCC(CC1)(F)F)OC(=O)N[C@@H](CC(C)C)C(=O)N[C@@H](C[C@@H]2CCNC2=O)[C@H](O)S(=O)(=O)O

> <OPENEYE_INCHI>
InChI=1S/C22H37F2N3O8S/c1-12(2)10-16(27-21(31)35-13(3)14-4-7-22(23,24)8-5-14)19(29)26-17(20(30)36(32,33)34)11-15-6-9-25-18(15)28/h12-17,20,30H,4-11H2,1-3H3,(H,25,28)(H,26,29)(H,27,31)(H,32,33,34)/t13-,15-,16-,17-,20+/m0/s1

> <OPENEYE_INCHIKEY>
YRNJEPAFOLVHMN-GINSCSNVSA-N

> <FORMULA>
C22H37F2N3O8S

$$$$
