YKP
  -OEChem-02242320043D

 73 74  0     1  0  0  0  0  0999 V2000
   -0.3610   -0.7340   -2.8670 C   0  0  0  0  0  0  0  0  0  0  0  0
    3.9960    0.1290    1.3240 C   0  0  1  0  0  0  0  0  0  0  0  0
   -4.2650   -2.8160    0.9520 C   0  0  0  0  0  0  0  0  0  0  0  0
   -4.2240   -1.3840    0.4140 C   0  0  1  0  0  0  0  0  0  0  0  0
   -1.9230   -0.7700    0.2680 C   0  0  0  0  0  0  0  0  0  0  0  0
    0.4350   -0.2340   -0.0350 C   0  0  1  0  0  0  0  0  0  0  0  0
    0.4510    0.8510   -1.1140 C   0  0  0  0  0  0  0  0  0  0  0  0
   -0.6590    0.5740   -2.1310 C   0  0  0  0  0  0  0  0  0  0  0  0
   -0.7240    1.7230   -3.1390 C   0  0  0  0  0  0  0  0  0  0  0  0
    1.6020   -0.0320    0.8970 C   0  0  0  0  0  0  0  0  0  0  0  0
    5.2380   -0.5440    0.7380 C   0  0  0  0  0  0  0  0  0  0  0  0
    5.0490   -2.0620    0.7480 C   0  0  1  0  0  0  0  0  0  0  0  0
    3.9430   -2.4640   -0.2030 C   0  0  0  0  0  0  0  0  0  0  0  0
    5.9340   -2.9400   -1.3010 C   0  0  0  0  0  0  0  0  0  0  0  0
    6.3060   -2.7680    0.1890 C   0  0  0  0  0  0  0  0  0  0  0  0
    4.2590    1.6270    1.4940 C   0  0  1  0  0  0  0  0  0  0  0  0
   -5.5030   -0.6500    0.8220 C   0  0  0  0  0  0  0  0  0  0  0  0
   -6.7170   -1.3780    0.2420 C   0  0  0  0  0  0  0  0  0  0  0  0
   -7.9950   -0.6440    0.6500 C   0  0  0  0  0  0  0  0  0  0  0  0
   -7.9550    0.7880    0.1120 C   0  0  0  0  0  0  0  0  0  0  0  0
   -6.7410    1.5160    0.6920 C   0  0  0  0  0  0  0  0  0  0  0  0
   -5.4620    0.7820    0.2840 C   0  0  0  0  0  0  0  0  0  0  0  0
   -7.8580    0.7590   -1.2840 F   0  0  0  0  0  0  0  0  0  0  0  0
   -9.1240    1.4600    0.4840 F   0  0  0  0  0  0  0  0  0  0  0  0
   -0.8160   -0.1500    0.7230 N   0  0  0  0  0  0  0  0  0  0  0  0
    2.8610   -0.0670    0.4180 N   0  0  0  0  0  0  0  0  0  0  0  0
    4.4670   -2.9570   -1.3390 N   0  0  0  0  0  0  0  0  0  0  0  0
   -3.0720   -0.6930    0.9640 O   0  0  0  0  0  0  0  0  0  0  0  0
    2.7570   -2.3580    0.0260 O   0  0  0  0  0  0  0  0  0  0  0  0
    5.4360    1.8170    2.2820 O   0  0  0  0  0  0  0  0  0  0  0  0
    1.4080    0.1630    2.0780 O   0  0  0  0  0  0  0  0  0  0  0  0
   -1.8830   -1.3970   -0.7720 O   0  0  0  0  0  0  0  0  0  0  0  0
   -0.3140   -1.5530   -2.1490 H   0  0  0  0  0  0  0  0  0  0  0  0
   -1.1510   -0.9310   -3.5920 H   0  0  0  0  0  0  0  0  0  0  0  0
    0.5950   -0.6500   -3.3850 H   0  0  0  0  0  0  0  0  0  0  0  0
    3.7660   -0.3120    2.2940 H   0  0  0  0  0  0  0  0  0  0  0  0
   -5.1290   -3.3350    0.5390 H   0  0  0  0  0  0  0  0  0  0  0  0
   -3.3540   -3.3390    0.6610 H   0  0  0  0  0  0  0  0  0  0  0  0
   -4.3400   -2.7940    2.0390 H   0  0  0  0  0  0  0  0  0  0  0  0
   -4.1490   -1.4070   -0.6730 H   0  0  0  0  0  0  0  0  0  0  0  0
    0.5110   -1.2150   -0.5040 H   0  0  0  0  0  0  0  0  0  0  0  0
    0.2860    1.8240   -0.6530 H   0  0  0  0  0  0  0  0  0  0  0  0
    1.4160    0.8460   -1.6200 H   0  0  0  0  0  0  0  0  0  0  0  0
   -1.6140    0.4900   -1.6130 H   0  0  0  0  0  0  0  0  0  0  0  0
    0.2310    1.8070   -3.6570 H   0  0  0  0  0  0  0  0  0  0  0  0
   -1.5140    1.5260   -3.8640 H   0  0  0  0  0  0  0  0  0  0  0  0
   -0.9360    2.6550   -2.6150 H   0  0  0  0  0  0  0  0  0  0  0  0
    5.3870   -0.2030   -0.2860 H   0  0  0  0  0  0  0  0  0  0  0  0
    6.1100   -0.2830    1.3380 H   0  0  0  0  0  0  0  0  0  0  0  0
    4.8300   -2.4110    1.7570 H   0  0  0  0  0  0  0  0  0  0  0  0
    6.3170   -2.1020   -1.8830 H   0  0  0  0  0  0  0  0  0  0  0  0
    6.3320   -3.8790   -1.6830 H   0  0  0  0  0  0  0  0  0  0  0  0
    7.1890   -2.1390    0.3010 H   0  0  0  0  0  0  0  0  0  0  0  0
    6.4550   -3.7360    0.6680 H   0  0  0  0  0  0  0  0  0  0  0  0
    3.4080    2.0910    1.9930 H   0  0  0  0  0  0  0  0  0  0  0  0
    4.4930    2.3880   -0.1360 S   0  0  0  0  0  0  0  0  0  0  0  0
   -5.5780   -0.6270    1.9090 H   0  0  0  0  0  0  0  0  0  0  0  0
   -6.6420   -1.4010   -0.8460 H   0  0  0  0  0  0  0  0  0  0  0  0
   -6.7460   -2.3980    0.6250 H   0  0  0  0  0  0  0  0  0  0  0  0
   -8.8600   -1.1630    0.2360 H   0  0  0  0  0  0  0  0  0  0  0  0
   -8.0700   -0.6210    1.7370 H   0  0  0  0  0  0  0  0  0  0  0  0
   -6.7120    2.5360    0.3080 H   0  0  0  0  0  0  0  0  0  0  0  0
   -6.8160    1.5390    1.7790 H   0  0  0  0  0  0  0  0  0  0  0  0
   -4.5970    1.3010    0.6970 H   0  0  0  0  0  0  0  0  0  0  0  0
   -5.3870    0.7600   -0.8030 H   0  0  0  0  0  0  0  0  0  0  0  0
   -0.8470    0.3510    1.5530 H   0  0  0  0  0  0  0  0  0  0  0  0
    3.0160   -0.2230   -0.5270 H   0  0  0  0  0  0  0  0  0  0  0  0
    3.9430   -3.2810   -2.0870 H   0  0  0  0  0  0  0  0  0  0  0  0
    5.3810    1.4340    3.1680 H   0  0  0  0  0  0  0  0  0  0  0  0
    4.4490    3.8050   -0.0350 O   0  0  0  0  0  0  0  0  0  0  0  0
    5.5370    1.7360   -0.8460 O   0  0  0  0  0  0  0  0  0  0  0  0
    3.2320    2.0280   -0.9080 O   0  0  0  0  0  0  0  0  0  0  0  0
    3.2120    2.3720   -1.8110 H   0  0  0  0  0  0  0  0  0  0  0  0
 20 24  1  0  0  0  0
 19 20  1  0  0  0  0
 18 19  1  0  0  0  0
 20 21  1  0  0  0  0
 20 23  1  0  0  0  0
 21 22  1  0  0  0  0
 17 18  1  0  0  0  0
 17 22  1  0  0  0  0
  4 17  1  0  0  0  0
  3  4  1  0  0  0  0
  4 28  1  0  0  0  0
  5 28  1  0  0  0  0
  5 25  1  0  0  0  0
  5 32  2  0  0  0  0
 14 15  1  0  0  0  0
 14 27  1  0  0  0  0
  6 25  1  0  0  0  0
 12 15  1  0  0  0  0
 13 27  1  0  0  0  0
 10 31  2  0  0  0  0
 12 13  1  0  0  0  0
 11 12  1  0  0  0  0
  6 10  1  0  0  0  0
  6  7  1  0  0  0  0
 10 26  1  0  0  0  0
 13 29  2  0  0  0  0
  7  8  1  0  0  0  0
  8  9  1  0  0  0  0
  1  8  1  0  0  0  0
  2 26  1  0  0  0  0
  2 11  1  0  0  0  0
  2 16  1  0  0  0  0
 16 30  1  0  0  0  0
  1 33  1  0  0  0  0
  1 34  1  0  0  0  0
  1 35  1  0  0  0  0
  2 36  1  0  0  0  0
  3 37  1  0  0  0  0
  3 38  1  0  0  0  0
  3 39  1  0  0  0  0
  4 40  1  0  0  0  0
  6 41  1  0  0  0  0
  7 42  1  0  0  0  0
  7 43  1  0  0  0  0
  8 44  1  0  0  0  0
  9 45  1  0  0  0  0
  9 46  1  0  0  0  0
  9 47  1  0  0  0  0
 11 48  1  0  0  0  0
 11 49  1  0  0  0  0
 12 50  1  0  0  0  0
 14 51  1  0  0  0  0
 14 52  1  0  0  0  0
 15 53  1  0  0  0  0
 15 54  1  0  0  0  0
 16 55  1  0  0  0  0
 16 56  1  0  0  0  0
 17 57  1  0  0  0  0
 18 58  1  0  0  0  0
 18 59  1  0  0  0  0
 19 60  1  0  0  0  0
 19 61  1  0  0  0  0
 21 62  1  0  0  0  0
 21 63  1  0  0  0  0
 22 64  1  0  0  0  0
 22 65  1  0  0  0  0
 25 66  1  0  0  0  0
 26 67  1  0  0  0  0
 27 68  1  0  0  0  0
 30 69  1  0  0  0  0
 56 70  2  0  0  0  0
 56 71  2  0  0  0  0
 56 72  1  0  0  0  0
 72 73  1  0  0  0  0
M  END
> <OPENEYE_ISO_SMILES>
C[C@@H](C1CCC(CC1)(F)F)OC(=O)N[C@@H](CC(C)C)C(=O)N[C@@H](C[C@@H]2CCNC2=O)[C@@H](O)S(=O)(=O)O

> <OPENEYE_INCHI>
InChI=1S/C22H37F2N3O8S/c1-12(2)10-16(27-21(31)35-13(3)14-4-7-22(23,24)8-5-14)19(29)26-17(20(30)36(32,33)34)11-15-6-9-25-18(15)28/h12-17,20,30H,4-11H2,1-3H3,(H,25,28)(H,26,29)(H,27,31)(H,32,33,34)/t13-,15-,16-,17-,20-/m0/s1

> <OPENEYE_INCHIKEY>
YRNJEPAFOLVHMN-ZZKADIETSA-N

> <FORMULA>
C22H37F2N3O8S

$$$$
