RFM
  -OEChem-02242320043D

 55 59  0     0  0  0  0  0  0999 V2000
   -1.9580   -1.5130   -0.7410 O   0  0  0  0  0  0  0  0  0  0  0  0
   -2.1580   -0.3680   -1.0880 C   0  0  0  0  0  0  0  0  0  0  0  0
   -1.1190    0.4630   -1.3040 N   0  0  0  0  0  0  0  0  0  0  0  0
    0.1850    0.0430   -1.0110 C   0  0  0  0  0  0  0  0  0  0  0  0
    0.3960   -1.1570   -0.3450 C   0  0  0  0  0  0  0  0  0  0  0  0
    1.6810   -1.5700   -0.0560 C   0  0  0  0  0  0  0  0  0  0  0  0
    2.7630   -0.7850   -0.4320 C   0  0  0  0  0  0  0  0  0  0  0  0
    4.0670   -1.2040   -0.1400 N   0  0  0  0  0  0  0  0  0  0  0  0
    5.0140   -0.2960    0.1670 C   0  0  0  0  0  0  0  0  0  0  0  0
    6.4150   -0.7260    0.3620 C   0  0  0  0  0  0  0  0  0  0  0  0
    7.3980    0.2130    0.6790 C   0  0  0  0  0  0  0  0  0  0  0  0
    8.7040   -0.1950    0.8600 C   0  0  0  0  0  0  0  0  0  0  0  0
    9.0390   -1.5310    0.7270 C   0  0  0  0  0  0  0  0  0  0  0  0
    8.0690   -2.4660    0.4120 C   0  0  0  0  0  0  0  0  0  0  0  0
    6.7590   -2.0720    0.2350 C   0  0  0  0  0  0  0  0  0  0  0  0
    4.7160    0.8770    0.2830 O   0  0  0  0  0  0  0  0  0  0  0  0
    2.5530    0.4150   -1.0980 C   0  0  0  0  0  0  0  0  0  0  0  0
    1.2680    0.8250   -1.3910 C   0  0  0  0  0  0  0  0  0  0  0  0
   -1.3530    1.8040   -1.8440 C   0  0  0  0  0  0  0  0  0  0  0  0
   -1.4000    2.8000   -0.7150 C   0  0  0  0  0  0  0  0  0  0  0  0
   -0.3260    3.4830   -0.3150 C   0  0  0  0  0  0  0  0  0  0  0  0
   -0.7640    4.5430    1.0180 S   0  0  0  0  0  0  0  0  0  0  0  0
   -2.4290    3.9820    0.9570 C   0  0  0  0  0  0  0  0  0  0  0  0
   -2.5620    3.0790   -0.0160 C   0  0  0  0  0  0  0  0  0  0  0  0
   -3.5690    0.1240   -1.2830 C   0  0  0  0  0  0  0  0  0  0  0  0
   -4.5110   -0.9270   -0.8920 N   0  0  0  0  0  0  0  0  0  0  0  0
   -5.0480   -1.1280    0.3570 C   0  0  0  0  0  0  0  0  0  0  0  0
   -4.9130   -0.4820    1.5820 C   0  0  0  0  0  0  0  0  0  0  0  0
   -5.6010   -0.9400    2.6700 C   0  0  0  0  0  0  0  0  0  0  0  0
   -6.4360   -2.0450    2.5650 C   0  0  0  0  0  0  0  0  0  0  0  0
   -6.5850   -2.6960    1.3760 C   0  0  0  0  0  0  0  0  0  0  0  0
   -5.8910   -2.2470    0.2440 C   0  0  0  0  0  0  0  0  0  0  0  0
   -5.8370   -2.6720   -1.0330 N   0  0  0  0  0  0  0  0  0  0  0  0
   -5.0490   -1.9230   -1.7210 N   0  0  0  0  0  0  0  0  0  0  0  0
   -0.4460   -1.7680   -0.0530 H   0  0  0  0  0  0  0  0  0  0  0  0
    1.8440   -2.5040    0.4620 H   0  0  0  0  0  0  0  0  0  0  0  0
    4.2880   -2.1490   -0.1570 H   0  0  0  0  0  0  0  0  0  0  0  0
    7.1380    1.2560    0.7830 H   0  0  0  0  0  0  0  0  0  0  0  0
    9.4660    0.5300    1.1050 H   0  0  0  0  0  0  0  0  0  0  0  0
   10.0630   -1.8450    0.8690 H   0  0  0  0  0  0  0  0  0  0  0  0
    8.3380   -3.5070    0.3090 H   0  0  0  0  0  0  0  0  0  0  0  0
    6.0030   -2.8030   -0.0100 H   0  0  0  0  0  0  0  0  0  0  0  0
    3.3950    1.0250   -1.3900 H   0  0  0  0  0  0  0  0  0  0  0  0
    1.1040    1.7590   -1.9100 H   0  0  0  0  0  0  0  0  0  0  0  0
   -0.5450    2.0660   -2.5270 H   0  0  0  0  0  0  0  0  0  0  0  0
   -2.3010    1.8190   -2.3820 H   0  0  0  0  0  0  0  0  0  0  0  0
    0.6610    3.3990   -0.7450 H   0  0  0  0  0  0  0  0  0  0  0  0
   -3.2240    4.3190    1.6050 H   0  0  0  0  0  0  0  0  0  0  0  0
   -3.5030    2.5970   -0.2370 H   0  0  0  0  0  0  0  0  0  0  0  0
   -3.7340    1.0080   -0.6670 H   0  0  0  0  0  0  0  0  0  0  0  0
   -3.7230    0.3780   -2.3320 H   0  0  0  0  0  0  0  0  0  0  0  0
   -4.2650    0.3770    1.6730 H   0  0  0  0  0  0  0  0  0  0  0  0
   -5.4950   -0.4370    3.6210 H   0  0  0  0  0  0  0  0  0  0  0  0
   -6.9720   -2.3940    3.4360 H   0  0  0  0  0  0  0  0  0  0  0  0
   -7.2370   -3.5540    1.3060 H   0  0  0  0  0  0  0  0  0  0  0  0
 12 13  2  0  0  0  0
 13 14  1  0  0  0  0
 11 12  1  0  0  0  0
 14 15  2  0  0  0  0
 10 11  2  0  0  0  0
 10 15  1  0  0  0  0
  9 10  1  0  0  0  0
  8  9  1  0  0  0  0
  7  8  1  0  0  0  0
  9 16  2  0  0  0  0
  7 17  2  0  0  0  0
 17 18  1  0  0  0  0
  6  7  1  0  0  0  0
  4 18  2  0  0  0  0
 22 23  1  0  0  0  0
 23 24  2  0  0  0  0
 21 22  1  0  0  0  0
  5  6  2  0  0  0  0
 20 24  1  0  0  0  0
  4  5  1  0  0  0  0
  3  4  1  0  0  0  0
 25 26  1  0  0  0  0
  2 25  1  0  0  0  0
 26 34  1  0  0  0  0
 33 34  2  0  0  0  0
 20 21  2  0  0  0  0
 26 27  1  0  0  0  0
 19 20  1  0  0  0  0
 32 33  1  0  0  0  0
  2  3  1  0  0  0  0
  3 19  1  0  0  0  0
  1  2  2  0  0  0  0
 27 32  2  0  0  0  0
 27 28  1  0  0  0  0
 31 32  1  0  0  0  0
 28 29  2  0  0  0  0
 30 31  2  0  0  0  0
 29 30  1  0  0  0  0
  5 35  1  0  0  0  0
  6 36  1  0  0  0  0
  8 37  1  0  0  0  0
 11 38  1  0  0  0  0
 12 39  1  0  0  0  0
 13 40  1  0  0  0  0
 14 41  1  0  0  0  0
 15 42  1  0  0  0  0
 17 43  1  0  0  0  0
 18 44  1  0  0  0  0
 19 45  1  0  0  0  0
 19 46  1  0  0  0  0
 21 47  1  0  0  0  0
 23 48  1  0  0  0  0
 24 49  1  0  0  0  0
 25 50  1  0  0  0  0
 25 51  1  0  0  0  0
 28 52  1  0  0  0  0
 29 53  1  0  0  0  0
 30 54  1  0  0  0  0
 31 55  1  0  0  0  0
M  END
> <OPENEYE_ISO_SMILES>
c1ccc(cc1)C(=O)Nc2ccc(cc2)N(Cc3ccsc3)C(=O)Cn4c5ccccc5nn4

> <OPENEYE_INCHI>
InChI=1S/C26H21N5O2S/c32-25(17-31-24-9-5-4-8-23(24)28-29-31)30(16-19-14-15-34-18-19)22-12-10-21(11-13-22)27-26(33)20-6-2-1-3-7-20/h1-15,18H,16-17H2,(H,27,33)

> <OPENEYE_INCHIKEY>
WHSQOXMSNUWORU-UHFFFAOYSA-N

> <FORMULA>
C26H21N5O2S

$$$$
