8I0
  -OEChem-02242320013D

 98101  0     1  0  0  0  0  0999 V2000
    4.5400    0.3320   -1.8420 C   0  0  0  0  0  0  0  0  0  0  0  0
    7.1050    3.2450    2.4150 C   0  0  0  0  0  0  0  0  0  0  0  0
   -3.7000   -0.2270    0.3930 C   0  0  2  0  0  0  0  0  0  0  0  0
   -2.5570   -0.3900   -0.5760 C   0  0  0  0  0  0  0  0  0  0  0  0
   -1.1270    1.3270    0.6350 C   0  0  0  0  0  0  0  0  0  0  0  0
   -0.2750    0.4210   -1.3470 C   0  0  2  0  0  0  0  0  0  0  0  0
    0.8610   -0.3960   -0.7860 C   0  0  0  0  0  0  0  0  0  0  0  0
   -0.4530    2.5130   -0.0880 C   0  0  2  0  0  0  0  0  0  0  0  0
    3.0400   -1.4620   -1.0150 C   0  0  1  0  0  0  0  0  0  0  0  0
   -1.0180    2.9480   -1.4410 C   0  0  0  0  0  0  0  0  0  0  0  0
    2.7800   -2.9690   -1.0240 C   0  0  0  0  0  0  0  0  0  0  0  0
    5.4670    2.8360    0.7160 C   0  0  0  0  0  0  0  0  0  0  0  0
    3.9170   -3.6870   -0.2940 C   0  0  2  0  0  0  0  0  0  0  0  0
    3.6900   -5.2170   -0.3110 C   0  0  0  0  0  0  0  0  0  0  0  0
    2.9620   -5.4430    1.0320 C   0  0  0  0  0  0  0  0  0  0  0  0
   -2.4160    2.4500   -1.8150 C   0  0  0  0  0  0  0  0  0  0  0  0
    3.9120   -3.3280    1.1760 C   0  0  0  0  0  0  0  0  0  0  0  0
   -0.6660    4.3530   -1.9340 C   0  0  0  0  0  0  0  0  0  0  0  0
   -3.5140   -2.6510    0.9670 C   0  0  0  0  0  0  0  0  0  0  0  0
   -8.3730    1.9870    0.0360 C   0  0  0  0  0  0  0  0  0  0  0  0
   -8.7690   -0.0300    1.4570 C   0  0  0  0  0  0  0  0  0  0  0  0
   -9.6770    0.0570   -0.8690 C   0  0  0  0  0  0  0  0  0  0  0  0
    5.1190    2.3950   -0.6820 C   0  0  0  0  0  0  0  0  0  0  0  0
   -3.5460   -1.2320    1.5370 C   0  0  0  0  0  0  0  0  0  0  0  0
   -2.2420   -0.9540    2.2880 C   0  0  0  0  0  0  0  0  0  0  0  0
   -4.7280   -1.0940    2.4980 C   0  0  0  0  0  0  0  0  0  0  0  0
    6.7850    2.8400    1.1320 C   0  0  0  0  0  0  0  0  0  0  0  0
    0.1090    1.9150   -1.3940 C   0  0  2  0  0  0  0  0  0  0  0  0
    4.4680    3.2370    1.5830 C   0  0  0  0  0  0  0  0  0  0  0  0
    4.7860    3.6310    2.8700 C   0  0  0  0  0  0  0  0  0  0  0  0
    6.1050    3.6400    3.2840 C   0  0  0  0  0  0  0  0  0  0  0  0
   -8.5090    0.4630    0.0320 C   0  0  0  0  0  0  0  0  0  0  0  0
    4.2840   -1.1530   -1.8510 C   0  0  1  0  0  0  0  0  0  0  0  0
   -6.1060    0.0840    0.1640 C   0  0  0  0  0  0  0  0  0  0  0  0
   -4.9670   -0.4670   -0.3010 N   0  0  0  0  0  0  0  0  0  0  0  0
   -1.4490    0.3650   -0.4450 N   0  0  0  0  0  0  0  0  0  0  0  0
    1.8850   -0.7630   -1.5820 N   0  0  0  0  0  0  0  0  0  0  0  0
    4.8700    0.9520   -0.6910 N   0  0  0  0  0  0  0  0  0  0  0  0
    3.3780   -4.3300    1.8950 N   0  0  0  0  0  0  0  0  0  0  0  0
   -7.2720   -0.1370   -0.4740 N   0  0  0  0  0  0  0  0  0  0  0  0
    4.0750   -1.5920   -3.1950 O   0  0  0  0  0  0  0  0  0  0  0  0
    4.3300   -2.2880    1.6380 O   0  0  0  0  0  0  0  0  0  0  0  0
   -6.0800    0.7810    1.1600 O   0  0  0  0  0  0  0  0  0  0  0  0
   -2.6360   -1.2010   -1.4750 O   0  0  0  0  0  0  0  0  0  0  0  0
    0.8540   -0.7230    0.3820 O   0  0  0  0  0  0  0  0  0  0  0  0
    4.4540    0.9690   -2.8700 O   0  0  0  0  0  0  0  0  0  0  0  0
    8.1350    3.2480    2.7390 H   0  0  0  0  0  0  0  0  0  0  0  0
   -3.6920    0.7860    0.7960 H   0  0  0  0  0  0  0  0  0  0  0  0
   -0.4400    0.8780    1.3520 H   0  0  0  0  0  0  0  0  0  0  0  0
   -2.0390    1.6550    1.1350 H   0  0  0  0  0  0  0  0  0  0  0  0
   -0.5430    0.0650   -2.3410 H   0  0  0  0  0  0  0  0  0  0  0  0
    0.1230    3.2130    0.5180 H   0  0  0  0  0  0  0  0  0  0  0  0
    3.2000   -1.1270    0.0100 H   0  0  0  0  0  0  0  0  0  0  0  0
    1.8360   -3.1780   -0.5210 H   0  0  0  0  0  0  0  0  0  0  0  0
    2.7300   -3.3230   -2.0540 H   0  0  0  0  0  0  0  0  0  0  0  0
    4.8770   -3.4370   -0.7450 H   0  0  0  0  0  0  0  0  0  0  0  0
    3.0590   -5.5080   -1.1510 H   0  0  0  0  0  0  0  0  0  0  0  0
    4.6400   -5.7520   -0.3350 H   0  0  0  0  0  0  0  0  0  0  0  0
    1.8820   -5.4220    0.8840 H   0  0  0  0  0  0  0  0  0  0  0  0
    3.2650   -6.3930    1.4700 H   0  0  0  0  0  0  0  0  0  0  0  0
   -3.1110    3.2900   -1.8200 H   0  0  0  0  0  0  0  0  0  0  0  0
   -2.3870    1.9970   -2.8050 H   0  0  0  0  0  0  0  0  0  0  0  0
   -2.7450    1.7100   -1.0860 H   0  0  0  0  0  0  0  0  0  0  0  0
    0.0870    4.7900   -1.2780 H   0  0  0  0  0  0  0  0  0  0  0  0
   -0.2740    4.2950   -2.9490 H   0  0  0  0  0  0  0  0  0  0  0  0
   -1.5600    4.9760   -1.9250 H   0  0  0  0  0  0  0  0  0  0  0  0
   -2.6710   -2.7490    0.2820 H   0  0  0  0  0  0  0  0  0  0  0  0
   -3.4040   -3.3670    1.7820 H   0  0  0  0  0  0  0  0  0  0  0  0
   -4.4420   -2.8490    0.4320 H   0  0  0  0  0  0  0  0  0  0  0  0
   -7.5400    2.2750    0.6770 H   0  0  0  0  0  0  0  0  0  0  0  0
   -8.1880    2.3380   -0.9800 H   0  0  0  0  0  0  0  0  0  0  0  0
   -9.2930    2.4330    0.4120 H   0  0  0  0  0  0  0  0  0  0  0  0
   -9.6890    0.4160    1.8330 H   0  0  0  0  0  0  0  0  0  0  0  0
   -8.8660   -1.1150    1.4540 H   0  0  0  0  0  0  0  0  0  0  0  0
   -7.9360    0.2590    2.0980 H   0  0  0  0  0  0  0  0  0  0  0  0
   -9.4920    0.4080   -1.8840 H   0  0  0  0  0  0  0  0  0  0  0  0
   -9.7740   -1.0280   -0.8720 H   0  0  0  0  0  0  0  0  0  0  0  0
  -10.5980    0.5030   -0.4930 H   0  0  0  0  0  0  0  0  0  0  0  0
    4.2240    2.9200   -1.0170 H   0  0  0  0  0  0  0  0  0  0  0  0
    5.9470    2.6250   -1.3520 H   0  0  0  0  0  0  0  0  0  0  0  0
   -1.4040   -1.0110    1.5940 H   0  0  0  0  0  0  0  0  0  0  0  0
   -2.2820    0.0430    2.7280 H   0  0  0  0  0  0  0  0  0  0  0  0
   -2.1130   -1.6940    3.0770 H   0  0  0  0  0  0  0  0  0  0  0  0
   -4.6180   -1.8100    3.3130 H   0  0  0  0  0  0  0  0  0  0  0  0
   -4.7510   -0.0830    2.9040 H   0  0  0  0  0  0  0  0  0  0  0  0
   -5.6570   -1.2930    1.9630 H   0  0  0  0  0  0  0  0  0  0  0  0
    7.5660    2.5270    0.4540 H   0  0  0  0  0  0  0  0  0  0  0  0
    1.0980    2.1810   -1.7690 H   0  0  0  0  0  0  0  0  0  0  0  0
    3.4380    3.2350    1.2580 H   0  0  0  0  0  0  0  0  0  0  0  0
    4.0050    3.9440    3.5470 H   0  0  0  0  0  0  0  0  0  0  0  0
    6.3540    3.9560    4.2860 H   0  0  0  0  0  0  0  0  0  0  0  0
    5.1440   -1.6730   -1.4290 H   0  0  0  0  0  0  0  0  0  0  0  0
   -4.9870   -1.0230   -1.0960 H   0  0  0  0  0  0  0  0  0  0  0  0
    1.8560   -0.5650   -2.5310 H   0  0  0  0  0  0  0  0  0  0  0  0
    4.9430    0.4420    0.1310 H   0  0  0  0  0  0  0  0  0  0  0  0
    3.2790   -4.3200    2.8600 H   0  0  0  0  0  0  0  0  0  0  0  0
   -7.2920   -0.6930   -1.2690 H   0  0  0  0  0  0  0  0  0  0  0  0
    3.3240   -1.1700   -3.6340 H   0  0  0  0  0  0  0  0  0  0  0  0
  2 31  2  0  0  0  0
 30 31  1  0  0  0  0
  2 27  1  0  0  0  0
 29 30  2  0  0  0  0
 12 27  2  0  0  0  0
 12 29  1  0  0  0  0
 19 24  1  0  0  0  0
 12 23  1  0  0  0  0
 24 25  1  0  0  0  0
  3 24  1  0  0  0  0
 24 26  1  0  0  0  0
 23 38  1  0  0  0  0
  5  8  1  0  0  0  0
  5 36  1  0  0  0  0
  8 28  1  0  0  0  0
  8 10  1  0  0  0  0
 34 43  2  0  0  0  0
  7 45  2  0  0  0  0
  3 35  1  0  0  0  0
  3  4  1  0  0  0  0
  1 38  1  0  0  0  0
  4 36  1  0  0  0  0
  6 36  1  0  0  0  0
 10 28  1  0  0  0  0
  6 28  1  0  0  0  0
 34 35  1  0  0  0  0
 34 40  1  0  0  0  0
 21 32  1  0  0  0  0
 10 18  1  0  0  0  0
  6  7  1  0  0  0  0
  7 37  1  0  0  0  0
 14 15  1  0  0  0  0
 13 14  1  0  0  0  0
  4 44  2  0  0  0  0
 10 16  1  0  0  0  0
 15 39  1  0  0  0  0
 20 32  1  0  0  0  0
 33 41  1  0  0  0  0
  1 33  1  0  0  0  0
  1 46  2  0  0  0  0
  9 37  1  0  0  0  0
  9 33  1  0  0  0  0
  9 11  1  0  0  0  0
 32 40  1  0  0  0  0
 22 32  1  0  0  0  0
 11 13  1  0  0  0  0
 13 17  1  0  0  0  0
 17 39  1  0  0  0  0
 17 42  2  0  0  0  0
  2 47  1  0  0  0  0
  3 48  1  0  0  0  0
  5 49  1  0  0  0  0
  5 50  1  0  0  0  0
  6 51  1  0  0  0  0
  8 52  1  0  0  0  0
  9 53  1  0  0  0  0
 11 54  1  0  0  0  0
 11 55  1  0  0  0  0
 13 56  1  0  0  0  0
 14 57  1  0  0  0  0
 14 58  1  0  0  0  0
 15 59  1  0  0  0  0
 15 60  1  0  0  0  0
 16 61  1  0  0  0  0
 16 62  1  0  0  0  0
 16 63  1  0  0  0  0
 18 64  1  0  0  0  0
 18 65  1  0  0  0  0
 18 66  1  0  0  0  0
 19 67  1  0  0  0  0
 19 68  1  0  0  0  0
 19 69  1  0  0  0  0
 20 70  1  0  0  0  0
 20 71  1  0  0  0  0
 20 72  1  0  0  0  0
 21 73  1  0  0  0  0
 21 74  1  0  0  0  0
 21 75  1  0  0  0  0
 22 76  1  0  0  0  0
 22 77  1  0  0  0  0
 22 78  1  0  0  0  0
 23 79  1  0  0  0  0
 23 80  1  0  0  0  0
 25 81  1  0  0  0  0
 25 82  1  0  0  0  0
 25 83  1  0  0  0  0
 26 84  1  0  0  0  0
 26 85  1  0  0  0  0
 26 86  1  0  0  0  0
 27 87  1  0  0  0  0
 28 88  1  0  0  0  0
 29 89  1  0  0  0  0
 30 90  1  0  0  0  0
 31 91  1  0  0  0  0
 33 92  1  0  0  0  0
 35 93  1  0  0  0  0
 37 94  1  0  0  0  0
 38 95  1  0  0  0  0
 39 96  1  0  0  0  0
 40 97  1  0  0  0  0
 41 98  1  0  0  0  0
M  END
> <OPENEYE_ISO_SMILES>
CC1([C@@H]2[C@H]1[C@H](N(C2)C(=O)[C@H](C(C)(C)C)NC(=O)NC(C)(C)C)C(=O)N[C@@H](C[C@@H]3CCNC3=O)[C@H](C(=O)NCc4ccccc4)O)C

> <OPENEYE_INCHI>
InChI=1S/C34H52N6O6/c1-32(2,3)26(38-31(46)39-33(4,5)6)30(45)40-18-21-23(34(21,7)8)24(40)28(43)37-22(16-20-14-15-35-27(20)42)25(41)29(44)36-17-19-12-10-9-11-13-19/h9-13,20-26,41H,14-18H2,1-8H3,(H,35,42)(H,36,44)(H,37,43)(H2,38,39,46)/t20-,21-,22-,23-,24-,25+,26+/m0/s1

> <OPENEYE_INCHIKEY>
WFDSDFTYLISRSE-ADSPCUKESA-N

> <FORMULA>
C34H52N6O6

$$$$
