JHJ
  -OEChem-02242320033D

 31 32  0     0  0  0  0  0  0999 V2000
    0.8170    0.7190    0.0900 C   0  0  0  0  0  0  0  0  0  0  0  0
    2.0560    1.1840    0.3440 N   0  0  0  0  0  0  0  0  0  0  0  0
    3.1650    0.3610    0.1440 C   0  0  0  0  0  0  0  0  0  0  0  0
    5.4650    0.0490   -0.4280 C   0  0  0  0  0  0  0  0  0  0  0  0
    4.1940   -1.7970    0.1230 C   0  0  0  0  0  0  0  0  0  0  0  0
   -5.5220   -1.9780   -0.0340 C   0  0  0  0  0  0  0  0  0  0  0  0
   -4.0980   -0.0760   -0.1210 C   0  0  0  0  0  0  0  0  0  0  0  0
   -3.0600   -0.9060    0.2750 C   0  0  0  0  0  0  0  0  0  0  0  0
   -1.7880   -0.3930    0.4400 C   0  0  0  0  0  0  0  0  0  0  0  0
   -1.5490    0.9550    0.2090 C   0  0  0  0  0  0  0  0  0  0  0  0
   -2.5890    1.7860   -0.1880 C   0  0  0  0  0  0  0  0  0  0  0  0
   -3.8590    1.2710   -0.3520 C   0  0  0  0  0  0  0  0  0  0  0  0
    4.3930    0.8960   -0.2410 C   0  0  0  0  0  0  0  0  0  0  0  0
    3.0750   -1.0180    0.3310 C   0  0  0  0  0  0  0  0  0  0  0  0
   -0.2600    1.4770    0.3770 N   0  0  0  0  0  0  0  0  0  0  0  0
    5.3380   -1.2520   -0.2470 N   0  0  0  0  0  0  0  0  0  0  0  0
   -5.3480   -0.5830   -0.2890 O   0  0  0  0  0  0  0  0  0  0  0  0
    0.6700   -0.3840   -0.4010 O   0  0  0  0  0  0  0  0  0  0  0  0
    2.1770    2.0910    0.6660 H   0  0  0  0  0  0  0  0  0  0  0  0
    6.4200    0.4550   -0.7270 H   0  0  0  0  0  0  0  0  0  0  0  0
    4.1330   -2.8660    0.2610 H   0  0  0  0  0  0  0  0  0  0  0  0
   -6.5630   -2.2520   -0.2040 H   0  0  0  0  0  0  0  0  0  0  0  0
   -4.8800   -2.5530   -0.7020 H   0  0  0  0  0  0  0  0  0  0  0  0
   -5.2540   -2.1940    1.0010 H   0  0  0  0  0  0  0  0  0  0  0  0
   -3.2460   -1.9550    0.4550 H   0  0  0  0  0  0  0  0  0  0  0  0
   -0.9810   -1.0390    0.7490 H   0  0  0  0  0  0  0  0  0  0  0  0
   -2.4030    2.8350   -0.3680 H   0  0  0  0  0  0  0  0  0  0  0  0
   -4.6670    1.9170   -0.6650 H   0  0  0  0  0  0  0  0  0  0  0  0
    4.5030    1.9600   -0.3920 H   0  0  0  0  0  0  0  0  0  0  0  0
    2.1420   -1.4700    0.6330 H   0  0  0  0  0  0  0  0  0  0  0  0
   -0.1420    2.3850    0.6980 H   0  0  0  0  0  0  0  0  0  0  0  0
  5 14  2  0  0  0  0
  3 14  1  0  0  0  0
  5 16  1  0  0  0  0
  4 16  2  0  0  0  0
  2  3  1  0  0  0  0
  1  2  1  0  0  0  0
  3 13  2  0  0  0  0
  1 15  1  0  0  0  0
 10 15  1  0  0  0  0
  9 10  2  0  0  0  0
  8  9  1  0  0  0  0
  1 18  2  0  0  0  0
  4 13  1  0  0  0  0
 10 11  1  0  0  0  0
  7  8  2  0  0  0  0
 11 12  2  0  0  0  0
  7 12  1  0  0  0  0
  7 17  1  0  0  0  0
  6 17  1  0  0  0  0
  2 19  1  0  0  0  0
  4 20  1  0  0  0  0
  5 21  1  0  0  0  0
  6 22  1  0  0  0  0
  6 23  1  0  0  0  0
  6 24  1  0  0  0  0
  8 25  1  0  0  0  0
  9 26  1  0  0  0  0
 11 27  1  0  0  0  0
 12 28  1  0  0  0  0
 13 29  1  0  0  0  0
 14 30  1  0  0  0  0
 15 31  1  0  0  0  0
M  END
> <OPENEYE_ISO_SMILES>
COc1ccc(cc1)NC(=O)Nc2ccncc2

> <OPENEYE_INCHI>
InChI=1S/C13H13N3O2/c1-18-12-4-2-10(3-5-12)15-13(17)16-11-6-8-14-9-7-11/h2-9H,1H3,(H2,14,15,16,17)

> <OPENEYE_INCHIKEY>
IFKGCTGEAFOLOL-UHFFFAOYSA-N

> <FORMULA>
C13H13N3O2

$$$$
