@<TRIPOS>MOLECULE
/home/pku/3cl/gett_pdb/5SS4/5SS4_mol2/ligand/5SS4_RKI.pdb
 35 37 0 0 0
SMALL
GASTEIGER

@<TRIPOS>ATOM
      1  C18      -40.0710  -38.7730   -4.0290 C.ar  201  RKI201      0.0678
      2  C16      -41.7500  -39.4260   -2.5960 C.2   201  RKI201      0.1022
      3  C14      -41.9510  -37.3820   -3.6100 C.3   201  RKI201      0.2089
      4  C12      -42.7160  -36.0960   -3.8400 C.2   201  RKI201      0.2494
      5  C10      -44.8170  -34.8110   -3.4920 C.3   201  RKI201      0.0369
      6  C20      -38.5520  -37.7440   -5.5710 C.ar  201  RKI201     -0.0221
      7  C19      -38.8390  -38.8530   -4.7700 C.ar  201  RKI201     -0.0313
      8  C02      -43.2970  -32.3350    1.7970 C.2   201  RKI201      0.0460
      9  C04      -43.6350  -31.7780    0.4130 C.3   201  RKI201      0.0120
     10  C05      -44.5860  -32.7200   -0.3300 C.ar  201  RKI201     -0.0416
     11  C06      -45.8290  -32.9850    0.2200 C.ar  201  RKI201     -0.0582
     12  C07      -46.7190  -33.8280   -0.4190 C.ar  201  RKI201     -0.0612
     13  C08      -46.3750  -34.4150   -1.6140 C.ar  201  RKI201     -0.0571
     14  C09      -45.1440  -34.1540   -2.1670 C.ar  201  RKI201     -0.0301
     15  C22      -40.7520  -37.5840   -4.2630 C.ar  201  RKI201      0.0522
     16  C23      -44.2420  -33.3140   -1.5350 C.ar  201  RKI201     -0.0535
     17  N11      -44.0480  -36.0080   -3.2980 N.am  201  RKI201     -0.3088
     18  N15      -42.4290  -38.3070   -2.7900 N.2   201  RKI201     -0.2500
     19  N17      -40.6020  -39.6660   -3.1940 N.pl3 201  RKI201     -0.2027
     20  O01      -42.8920  -31.5980    2.7400 O.co2 201  RKI201     -0.5495
     21  O03      -43.4470  -33.5660    1.9910 O.co2 201  RKI201     -0.5495
     22  O13      -42.2330  -35.1960   -4.4410 O.2   201  RKI201     -0.2726
     23  S21      -39.8340  -36.6660   -5.3570 S.2   201  RKI201     -0.0966
     24 H161      -42.1550  -40.1610   -1.9250 H     201  RKI201      0.1014
     25 H101      -45.7410  -35.0570   -3.9980 H     201  RKI201      0.0512
     26 H102      -44.2510  -34.1130   -4.0890 H     201  RKI201      0.0512
     27 H201      -37.6940  -37.5980   -6.1940 H     201  RKI201      0.0694
     28 H191      -38.1910  -39.7140   -4.7080 H     201  RKI201      0.0642
     29 H042      -44.1320  -30.8180    0.5440 H     201  RKI201      0.0373
     30 H041      -42.7310  -31.6170   -0.1690 H     201  RKI201      0.0373
     31 H061      -46.0990  -32.5320    1.1590 H     201  RKI201      0.0620
     32 H071      -47.6810  -34.0320    0.0140 H     201  RKI201      0.0618
     33 H081      -47.0620  -35.0760   -2.1230 H     201  RKI201      0.0621
     34 H231      -43.2740  -33.1250   -1.9770 H     201  RKI201      0.0624
     35 H111      -44.4370  -36.7750   -2.7960 H     201  RKI201      0.1491
@<TRIPOS>UNITY_ATOM_ATTR
20 1
charge -1
@<TRIPOS>BOND
     1    27     6    1
     2     6    23   ar
     3     6     7   ar
     4    23    15   ar
     5     7    28    1
     6     7     1   ar
     7    22     4    2
     8    15     1   ar
     9    15     3    1
    10    26     5    1
    11     1    19    1
    12    25     5    1
    13     4     3    1
    14     4    17   am
    15     3    18    1
    16     5    17    1
    17     5    14    1
    18    17    35    1
    19    19     2    1
    20    18     2    2
    21     2    24    1
    22    14    13   ar
    23    14    16   ar
    24    33    13    1
    25    34    16    1
    26    13    12   ar
    27    16    10   ar
    28    12    32    1
    29    12    11   ar
    30    10    11   ar
    31    10     9    1
    32    30     9    1
    33    11    31    1
    34     9    29    1
    35     9     8    1
    36     8    21   ar
    37     8    20   ar
