EXB
  -OEChem-02242320023D

 24 25  0     0  0  0  0  0  0999 V2000
   -1.3140   -1.4440    0.3800 C   0  0  0  0  0  0  0  0  0  0  0  0
   -3.5280    0.0620   -0.3790 C   0  0  0  0  0  0  0  0  0  0  0  0
   -3.6380   -1.2880   -0.2030 C   0  0  0  0  0  0  0  0  0  0  0  0
   -2.5380   -2.0450    0.1760 C   0  0  0  0  0  0  0  0  0  0  0  0
   -2.2980    0.6930   -0.1770 C   0  0  0  0  0  0  0  0  0  0  0  0
    2.0230    0.0450   -0.5330 C   0  0  0  0  0  0  0  0  0  0  0  0
    1.2420    0.4880    0.7060 C   0  0  0  0  0  0  0  0  0  0  0  0
   -0.1340    0.8160    0.3250 N   0  0  0  0  0  0  0  0  0  0  0  0
   -1.1830   -0.0730    0.2060 C   0  0  0  0  0  0  0  0  0  0  0  0
   -0.6140    2.0520    0.0240 C   0  0  0  0  0  0  0  0  0  0  0  0
   -1.8790    1.9810   -0.2700 N   0  0  0  0  0  0  0  0  0  0  0  0
    3.4380   -0.2920   -0.1420 C   0  0  0  0  0  0  0  0  0  0  0  0
    3.7870   -0.1890    1.0100 O   0  0  0  0  0  0  0  0  0  0  0  0
   -0.4620   -2.0360    0.6790 H   0  0  0  0  0  0  0  0  0  0  0  0
   -4.3910    0.6410   -0.6740 H   0  0  0  0  0  0  0  0  0  0  0  0
   -4.5910   -1.7720   -0.3600 H   0  0  0  0  0  0  0  0  0  0  0  0
   -2.6410   -3.1110    0.3110 H   0  0  0  0  0  0  0  0  0  0  0  0
    1.5470   -0.8350   -0.9670 H   0  0  0  0  0  0  0  0  0  0  0  0
    1.2340   -0.3190    1.4380 H   0  0  0  0  0  0  0  0  0  0  0  0
    1.7190    1.3670    1.1400 H   0  0  0  0  0  0  0  0  0  0  0  0
   -0.0300    2.9610    0.0290 H   0  0  0  0  0  0  0  0  0  0  0  0
    4.3120   -0.7080   -1.0730 O   0  0  0  0  0  0  0  0  0  0  0  0
    2.0310    0.8520   -1.2660 H   0  0  0  0  0  0  0  0  0  0  0  0
    5.2080   -0.9130   -0.7740 H   0  0  0  0  0  0  0  0  0  0  0  0
  1  4  2  0  0  0  0
  1  9  1  0  0  0  0
  1 14  1  0  0  0  0
  2  3  2  0  0  0  0
  2  5  1  0  0  0  0
  2 15  1  0  0  0  0
  3  4  1  0  0  0  0
  3 16  1  0  0  0  0
  4 17  1  0  0  0  0
  5  9  2  0  0  0  0
  5 11  1  0  0  0  0
  6  7  1  0  0  0  0
  6 12  1  0  0  0  0
  6 18  1  0  0  0  0
  7  8  1  0  0  0  0
  7 19  1  0  0  0  0
  7 20  1  0  0  0  0
  8  9  1  0  0  0  0
  8 10  1  0  0  0  0
 10 11  2  0  0  0  0
 10 21  1  0  0  0  0
 12 13  2  0  0  0  0
 12 22  1  0  0  0  0
  6 23  1  0  0  0  0
 22 24  1  0  0  0  0
M  END
> <OPENEYE_ISO_SMILES>
c1ccc2c(c1)ncn2CCC(=O)O

> <OPENEYE_INCHI>
InChI=1S/C10H10N2O2/c13-10(14)5-6-12-7-11-8-3-1-2-4-9(8)12/h1-4,7H,5-6H2,(H,13,14)

> <OPENEYE_INCHIKEY>
XKGRXBQGCQJOHQ-UHFFFAOYSA-N

> <FORMULA>
C10H10N2O2

$$$$
