RFE
  -OEChem-02242320043D

 50 51  0     1  0  0  0  0  0999 V2000
   -0.0970    1.6110    1.8150 C   0  0  0  0  0  0  0  0  0  0  0  0
   -1.4840    2.9100    0.3540 C   0  0  2  0  0  0  0  0  0  0  0  0
   -1.2540    4.3410    0.8440 C   0  0  0  0  0  0  0  0  0  0  0  0
   -2.8600    2.8120   -0.3060 C   0  0  0  0  0  0  0  0  0  0  0  0
   -3.4700    0.3570   -0.2160 C   0  0  0  0  0  0  0  0  0  0  0  0
   -4.2350   -1.1170    1.3730 C   0  0  0  0  0  0  0  0  0  0  0  0
   -3.8870   -1.9580   -0.7480 C   0  0  0  0  0  0  0  0  0  0  0  0
   -3.4740   -0.6800   -1.1640 C   0  0  0  0  0  0  0  0  0  0  0  0
   -2.7860    1.1130   -2.1710 C   0  0  0  0  0  0  0  0  0  0  0  0
    2.5050   -1.2280    0.1850 C   0  0  2  0  0  0  0  0  0  0  0  0
    2.1410   -2.6030    0.6830 C   0  0  0  0  0  0  0  0  0  0  0  0
    4.0270   -1.1090    0.0850 C   0  0  0  0  0  0  0  0  0  0  0  0
    4.3930    0.2410   -0.5370 C   0  0  0  0  0  0  0  0  0  0  0  0
    6.4310    2.0180   -1.4030 C   0  0  0  0  0  0  0  0  0  0  0  0
   -3.0320    1.4740   -0.8800 N   0  0  0  0  0  0  0  0  0  0  0  0
   -3.8580    0.0960    1.0290 N   0  0  0  0  0  0  0  0  0  0  0  0
   -4.2490   -2.1250    0.5190 N   0  0  0  0  0  0  0  0  0  0  0  0
   -3.9120   -3.0180   -1.6370 N   0  0  0  0  0  0  0  0  0  0  0  0
   -3.0460   -0.1520   -2.3350 N   0  0  0  0  0  0  0  0  0  0  0  0
    1.9960   -0.2170    1.1220 N   0  0  0  0  0  0  0  0  0  0  0  0
    0.6230    0.9790   -0.7140 O   0  0  0  0  0  0  0  0  0  0  0  0
   -1.4230    2.0120    1.4640 O   0  0  0  0  0  0  0  0  0  0  0  0
    2.5060   -3.6880   -0.0180 O   0  0  0  0  0  0  0  0  0  0  0  0
    1.5200   -2.7280    1.7120 O   0  0  0  0  0  0  0  0  0  0  0  0
   -0.5550   -0.8550    0.5590 O   0  0  0  0  0  0  0  0  0  0  0  0
    0.4960    0.3630    0.6260 P   0  0  2  0  0  0  0  0  0  0  0  0
    6.1980    0.3820   -0.6560 S   0  0  0  0  0  0  0  0  0  0  0  0
    0.5640    2.4780    1.7910 H   0  0  0  0  0  0  0  0  0  0  0  0
   -0.0990    1.1850    2.8180 H   0  0  0  0  0  0  0  0  0  0  0  0
   -0.7130    2.6450   -0.3700 H   0  0  0  0  0  0  0  0  0  0  0  0
   -1.3880    5.0350    0.0130 H   0  0  0  0  0  0  0  0  0  0  0  0
   -1.9700    4.5750    1.6320 H   0  0  0  0  0  0  0  0  0  0  0  0
   -0.2400    4.4340    1.2340 H   0  0  0  0  0  0  0  0  0  0  0  0
   -3.6350    2.9890    0.4400 H   0  0  0  0  0  0  0  0  0  0  0  0
   -2.9380    3.5590   -1.0960 H   0  0  0  0  0  0  0  0  0  0  0  0
   -4.5440   -1.2960    2.3930 H   0  0  0  0  0  0  0  0  0  0  0  0
   -2.4290    1.7780   -2.9430 H   0  0  0  0  0  0  0  0  0  0  0  0
    2.0630   -1.0680   -0.7980 H   0  0  0  0  0  0  0  0  0  0  0  0
    4.4640   -1.1800    1.0810 H   0  0  0  0  0  0  0  0  0  0  0  0
    4.4140   -1.9130   -0.5400 H   0  0  0  0  0  0  0  0  0  0  0  0
    3.9570    0.3120   -1.5330 H   0  0  0  0  0  0  0  0  0  0  0  0
    4.0060    1.0460    0.0880 H   0  0  0  0  0  0  0  0  0  0  0  0
    5.9930    2.7790   -0.7570 H   0  0  0  0  0  0  0  0  0  0  0  0
    7.4960    2.2140   -1.5240 H   0  0  0  0  0  0  0  0  0  0  0  0
    5.9430    2.0450   -2.3780 H   0  0  0  0  0  0  0  0  0  0  0  0
   -3.6430   -2.8840   -2.5600 H   0  0  0  0  0  0  0  0  0  0  0  0
   -4.1990   -3.8950   -1.3380 H   0  0  0  0  0  0  0  0  0  0  0  0
    2.6560    0.5370    1.2340 H   0  0  0  0  0  0  0  0  0  0  0  0
    2.2490   -4.5490    0.3410 H   0  0  0  0  0  0  0  0  0  0  0  0
   -0.6890   -1.3070    1.4030 H   0  0  0  0  0  0  0  0  0  0  0  0
 21 26  2  0  0  0  0
 25 26  1  0  0  0  0
 11 24  2  0  0  0  0
 20 26  1  0  0  0  0
  1 26  1  0  0  0  0
 10 20  1  0  0  0  0
 10 11  1  0  0  0  0
 11 23  1  0  0  0  0
  1 22  1  0  0  0  0
 10 12  1  0  0  0  0
 12 13  1  0  0  0  0
  2 22  1  0  0  0  0
 14 27  1  0  0  0  0
 13 27  1  0  0  0  0
  2  3  1  0  0  0  0
  2  4  1  0  0  0  0
  7 18  1  0  0  0  0
  7 17  2  0  0  0  0
  6 17  1  0  0  0  0
  7  8  1  0  0  0  0
  6 16  2  0  0  0  0
  5  8  2  0  0  0  0
  8 19  1  0  0  0  0
  5 16  1  0  0  0  0
  5 15  1  0  0  0  0
  9 19  2  0  0  0  0
  9 15  1  0  0  0  0
  4 15  1  0  0  0  0
  1 28  1  0  0  0  0
  1 29  1  0  0  0  0
  2 30  1  0  0  0  0
  3 31  1  0  0  0  0
  3 32  1  0  0  0  0
  3 33  1  0  0  0  0
  4 34  1  0  0  0  0
  4 35  1  0  0  0  0
  6 36  1  0  0  0  0
  9 37  1  0  0  0  0
 10 38  1  0  0  0  0
 12 39  1  0  0  0  0
 12 40  1  0  0  0  0
 13 41  1  0  0  0  0
 13 42  1  0  0  0  0
 14 43  1  0  0  0  0
 14 44  1  0  0  0  0
 14 45  1  0  0  0  0
 18 46  1  0  0  0  0
 18 47  1  0  0  0  0
 20 48  1  0  0  0  0
 23 49  1  0  0  0  0
 25 50  1  0  0  0  0
M  END
> <OPENEYE_ISO_SMILES>
C[C@H](Cn1cnc2c1ncnc2N)OC[P@@](=O)(N[C@@H](CCSC)C(=O)O)O

> <OPENEYE_INCHI>
InChI=1S/C14H23N6O5PS/c1-9(5-20-7-18-11-12(15)16-6-17-13(11)20)25-8-26(23,24)19-10(14(21)22)3-4-27-2/h6-7,9-10H,3-5,8H2,1-2H3,(H,21,22)(H2,15,16,17)(H2,19,23,24)/t9-,10+/m1/s1

> <OPENEYE_INCHIKEY>
PEQPYHOXTFLJCT-ZJUUUORDSA-N

> <FORMULA>
C14H23N6O5PS

$$$$
