@<TRIPOS>MOLECULE
/home/pku/3cl/gett_pdb/5RTM/5RTM_mol2/ligand/5RTM_PZA.pdb
 28 19 0 0 0
SMALL
GASTEIGER

@<TRIPOS>ATOM
      1  C        -49.2920  -29.1500    6.8820 C.3   201  PZA201      0.0000
      2  C        -50.9930  -29.2970    5.7730 C.2   201  PZA201      0.3165
      3  N1       -48.2610  -29.1660    7.8830 N.3   201  PZA201     -0.2731
      4  N1       -50.7680  -29.1470    7.2020 N.am  201  PZA201     -0.2262
      5  O        -50.4210  -29.1250    7.1910 O.3   201  PZA201     -0.2528
      6  O        -52.0310  -29.5610    5.2900 O.2   201  PZA201     -0.2636
      7  C1       -47.3070  -29.2280    3.7970 C.3   201  PZA201     -0.0309
      8  C1       -47.4790  -29.1450    4.8850 C.3   201  PZA201     -0.0309
      9  C2       -48.2830  -29.1750    2.8300 C.3   201  PZA201     -0.0309
     10  C2       -47.5180  -29.1140    3.5120 C.3   201  PZA201     -0.0309
     11  N2       -49.5420  -29.1240    3.1650 N.2   201  PZA201     -0.1602
     12  N2       -48.6650  -29.1280    2.8680 N.2   201  PZA201     -0.0280
     13  C3       -49.8780  -29.1190    4.4380 C.3   201  PZA201      0.0201
     14  C3       -49.7810  -29.1770    3.5480 C.3   201  PZA201      0.1054
     15  C4       -48.8970  -29.1490    5.4210 C.2   201  PZA201     -0.0052
     16  C4       -49.7570  -29.1940    4.9190 C.2   201  PZA201     -0.0291
     17  N3       -47.6250  -29.2100    5.0630 N.1   201  PZA201      0.0000
     18  N3       -48.6090  -29.1790    5.5510 N.1   201  PZA201      0.0000
     19  H1       -48.4710  -29.1650    8.7170 H     201  PZA201      0.1366
     20  H1       -49.9800  -28.9710    7.4990 H     201  PZA201      0.2528
     21  H2       -47.4340  -29.1820    7.6480 H     201  PZA201      0.1366
     22  H2       -51.4300  -29.2020    7.7480 H     201  PZA201      0.1733
     23  H3       -46.4120  -29.2580    3.5470 H     201  PZA201      0.0309
     24  H3       -46.6650  -29.1320    5.3350 H     201  PZA201      0.0309
     25  H5       -48.0390  -29.1810    1.9330 H     201  PZA201      0.0309
     26  H5       -46.7230  -29.0670    3.0320 H     201  PZA201      0.0309
     27  H4       -50.7750  -29.0770    4.6800 H     201  PZA201      0.0378
     28  H4       -50.6270  -29.1690    3.1660 H     201  PZA201      0.0591
@<TRIPOS>BOND
     1    25     9    1
     2     9    10    1
     3    12    11    2
     4    26    10    1
     5    11    14    1
     6    28    14    1
     7    23     7    1
     8    14    13    1
     9    13    27    1
    10    13    16    1
    11     8    24    1
    12    16    15    2
    13    17    18    3
    14     6     2    2
    15     2     4   am
    16     5    20    1
    17     4    22    1
    18    21     3    1
    19     3    19    1
