@<TRIPOS>MOLECULE
/home/pku/3cl/gett_pdb/5SQM/5SQM_mol2/ligand/5SQM_QT0.pdb
 41 45 0 0 0
SMALL
GASTEIGER

@<TRIPOS>ATOM
      1  C17      -46.2590  -34.6730   -0.5060 C.ar  201  QT0201      0.4355
      2  C14      -45.6010  -32.7440    0.5410 C.ar  201  QT0201      0.2229
      3  C13      -44.9880  -31.3060    0.7930 C.3   201  QT0201      0.0500
      4  C12      -43.5630  -31.3780    1.1180 C.3   201  QT0201     -0.0394
      5  C11      -42.9610  -30.0590    1.1720 C.3   201  QT0201     -0.0394
      6  C10      -43.8750  -28.9600    1.7670 C.3   201  QT0201      0.0015
      7  C20      -45.8050  -30.6020    1.8900 C.3   201  QT0201      0.0127
      8  C02      -50.4880  -28.9370    4.7380 C.ar  201  QT0201      0.1254
      9  C03      -49.7040  -28.9930    5.8810 C.ar  201  QT0201     -0.0025
     10  C04      -48.3010  -29.1140    5.7720 C.ar  201  QT0201      0.0510
     11  C06      -46.1250  -29.2950    6.1670 C.ar  201  QT0201      0.1296
     12  C07      -46.2610  -29.2980    4.7970 C.ar  201  QT0201      0.0474
     13  C08      -45.0810  -29.4030    4.0140 C.3   201  QT0201      0.1881
     14  C22      -43.8280  -29.4970    5.9540 C.2   201  QT0201      0.1048
     15  C24      -47.6950  -29.1770    4.5380 C.ar  201  QT0201      0.0087
     16  C25      -48.4940  -29.1180    3.3730 C.ar  201  QT0201     -0.0494
     17  C26      -49.8810  -28.9950    3.4820 C.ar  201  QT0201     -0.0258
     18  F01      -51.8430  -28.8220    4.8370 F     201  QT0201     -0.2054
     19  N05      -47.3500  -29.1880    6.7310 N.ar  201  QT0201     -0.3411
     20  N09      -45.1110  -29.4240    2.5670 N.3   201  QT0201     -0.2707
     21  N15      -46.2530  -33.5910    1.5180 N.ar  201  QT0201     -0.1344
     22  N16      -46.6610  -34.7660    0.8810 N.ar  201  QT0201     -0.2084
     23  N21      -43.9120  -29.5000    4.6320 N.2   201  QT0201     -0.2431
     24  N23      -44.8930  -29.3990    6.7190 N.pl3 201  QT0201     -0.1859
     25  O18      -45.6200  -33.4260   -0.6970 O.2   201  QT0201     -0.3922
     26  O19      -46.4380  -35.4940   -1.3420 O.2   201  QT0201     -0.2213
     27 H131      -45.0760  -30.7940   -0.0100 H     201  QT0201      0.0409
     28 H122      -43.4550  -31.8060    1.9750 H     201  QT0201      0.0273
     29 H121      -43.1060  -31.9000    0.4350 H     201  QT0201      0.0273
     30 H112      -42.1370  -30.1080    1.6940 H     201  QT0201      0.0278
     31 H111      -42.7360  -29.7980    0.2660 H     201  QT0201      0.0278
     32 H102      -43.3250  -28.3960    2.3480 H     201  QT0201      0.0427
     33 H101      -44.1830  -28.3990    1.0300 H     201  QT0201      0.0427
     34 H201      -46.0200  -31.2560    2.5710 H     201  QT0201      0.0435
     35 H202      -46.6250  -30.2810    1.4910 H     201  QT0201      0.0435
     36 H031      -50.0920  -28.9570    6.7210 H     201  QT0201      0.0667
     37 H221      -42.9960  -29.5640    6.3470 H     201  QT0201      0.1015
     38 H251      -48.0950  -29.1600    2.5360 H     201  QT0201      0.0625
     39 H261      -50.4080  -28.9610    2.7180 H     201  QT0201      0.0646
     40 H051      -47.4980  -29.1710    7.5740 H     201  QT0201      0.1671
     41 H161      -47.0550  -35.4420    1.2570 H     201  QT0201      0.1954
@<TRIPOS>BOND
     1    26     1    2
     2    25     1   ar
     3    25     2   ar
     4     1    22   ar
     5    27     3    1
     6    31     5    1
     7    29     4    1
     8     2     3    1
     9     2    21   ar
    10     3     4    1
    11     3     7    1
    12    22    41    1
    13    22    21   ar
    14    33     6    1
    15     4     5    1
    16     4    28    1
    17     5    30    1
    18     5     6    1
    19    35     7    1
    20     6    32    1
    21     6    20    1
    22     7    20    1
    23     7    34    1
    24    38    16    1
    25    20    13    1
    26    39    17    1
    27    16    17   ar
    28    16    15   ar
    29    17     8   ar
    30    13    23    1
    31    13    12    1
    32    15    12   ar
    33    15    10   ar
    34    23    14    2
    35     8    18    1
    36     8     9   ar
    37    12    11   ar
    38    10     9   ar
    39    10    19   ar
    40     9    36    1
    41    14    37    1
    42    14    24    1
    43    11    24    1
    44    11    19   ar
    45    19    40    1
