TKS
  -OEChem-02242320043D

 77 79  0     1  0  0  0  0  0999 V2000
    0.3340    4.3240    0.1090 C   0  0  0  0  0  0  0  0  0  0  0  0
   -0.7020    4.8710   -2.0980 C   0  0  0  0  0  0  0  0  0  0  0  0
   -0.7130    3.3850   -2.4610 C   0  0  0  0  0  0  0  0  0  0  0  0
    2.6280   -0.0470    0.7500 C   0  0  0  0  0  0  0  0  0  0  0  0
   -0.8360    5.0270   -0.5820 C   0  0  0  0  0  0  0  0  0  0  0  0
    0.4580    2.6830   -1.7700 C   0  0  0  0  0  0  0  0  0  0  0  0
    5.0410   -0.3660    0.8730 C   0  0  1  0  0  0  0  0  0  0  0  0
    6.0620   -0.6100   -0.2390 C   0  0  0  0  0  0  0  0  0  0  0  0
    6.4890   -1.8780   -2.3510 C   0  0  0  0  0  0  0  0  0  0  0  0
    5.6830   -3.9620   -1.7200 C   0  0  0  0  0  0  0  0  0  0  0  0
    5.3130   -3.0010   -0.5680 C   0  0  0  0  0  0  0  0  0  0  0  0
    5.6610    0.5280    1.9490 C   0  0  2  0  0  0  0  0  0  0  0  0
   -4.1430   -2.3530    1.1060 C   0  0  0  0  0  0  0  0  0  0  0  0
   -4.6120   -0.1190    2.1200 C   0  0  0  0  0  0  0  0  0  0  0  0
   -4.4590   -0.8870    0.8060 C   0  0  0  0  0  0  0  0  0  0  0  0
   -3.3190   -0.2760   -0.0120 C   0  0  0  0  0  0  0  0  0  0  0  0
   -0.9750    0.1360    0.1610 C   0  0  0  0  0  0  0  0  0  0  0  0
    1.4110    0.6300    0.1750 C   0  0  2  0  0  0  0  0  0  0  0  0
    1.4940    2.1360    0.4360 C   0  0  0  0  0  0  0  0  0  0  0  0
    0.3230    2.8380   -0.2540 C   0  0  0  0  0  0  0  0  0  0  0  0
    5.4960   -1.6200   -1.2390 C   0  0  1  0  0  0  0  0  0  0  0  0
   -5.7430   -0.8000    0.0210 C   0  0  0  0  0  0  0  0  0  0  0  0
   -6.9170   -1.2910    0.5610 C   0  0  0  0  0  0  0  0  0  0  0  0
   -8.0950   -1.2100   -0.1600 C   0  0  0  0  0  0  0  0  0  0  0  0
   -8.0980   -0.6380   -1.4190 C   0  0  0  0  0  0  0  0  0  0  0  0
   -6.9230   -0.1480   -1.9580 C   0  0  0  0  0  0  0  0  0  0  0  0
   -5.7470   -0.2240   -1.2360 C   0  0  0  0  0  0  0  0  0  0  0  0
    0.2060    0.0900    0.8090 N   0  0  0  0  0  0  0  0  0  0  0  0
    3.8580    0.2920    0.3140 N   0  0  0  0  0  0  0  0  0  0  0  0
    6.5750   -3.1960   -2.5980 N   0  0  0  0  0  0  0  0  0  0  0  0
   -2.0820   -0.3600    0.7440 O   0  0  0  0  0  0  0  0  0  0  0  0
    7.1130   -1.0190   -2.9380 O   0  0  0  0  0  0  0  0  0  0  0  0
    6.8160   -0.1140    2.4940 O   0  0  0  0  0  0  0  0  0  0  0  0
    2.5020   -0.8970    1.6050 O   0  0  0  0  0  0  0  0  0  0  0  0
   -1.0400    0.6260   -0.9490 O   0  0  0  0  0  0  0  0  0  0  0  0
   -9.5700   -1.8270    0.5170 Cl  0  0  0  0  0  0  0  0  0  0  0  0
    4.4500    0.8170    3.2680 S   0  0  0  0  0  0  0  0  0  0  0  0
    1.2720    4.7720   -0.2210 H   0  0  0  0  0  0  0  0  0  0  0  0
    0.2380    4.4350    1.1890 H   0  0  0  0  0  0  0  0  0  0  0  0
    0.2360    5.3190   -2.4270 H   0  0  0  0  0  0  0  0  0  0  0  0
   -1.5360    5.3720   -2.5900 H   0  0  0  0  0  0  0  0  0  0  0  0
   -1.6510    2.9380   -2.1320 H   0  0  0  0  0  0  0  0  0  0  0  0
   -0.6170    3.2740   -3.5410 H   0  0  0  0  0  0  0  0  0  0  0  0
   -1.7740    4.5790   -0.2520 H   0  0  0  0  0  0  0  0  0  0  0  0
   -0.8290    6.0860   -0.3230 H   0  0  0  0  0  0  0  0  0  0  0  0
    0.4500    1.6240   -2.0290 H   0  0  0  0  0  0  0  0  0  0  0  0
    1.3950    3.1300   -2.1000 H   0  0  0  0  0  0  0  0  0  0  0  0
    4.7510   -1.3190    1.3160 H   0  0  0  0  0  0  0  0  0  0  0  0
    6.2730    0.3290   -0.7520 H   0  0  0  0  0  0  0  0  0  0  0  0
    6.9830   -1.0030    0.1920 H   0  0  0  0  0  0  0  0  0  0  0  0
    6.1990   -4.8400   -1.3320 H   0  0  0  0  0  0  0  0  0  0  0  0
    4.7860   -4.2620   -2.2630 H   0  0  0  0  0  0  0  0  0  0  0  0
    4.2790   -3.1480   -0.2540 H   0  0  0  0  0  0  0  0  0  0  0  0
    5.9950   -3.1200    0.2740 H   0  0  0  0  0  0  0  0  0  0  0  0
    5.9510    1.4810    1.5060 H   0  0  0  0  0  0  0  0  0  0  0  0
   -4.9550   -2.7880    1.6890 H   0  0  0  0  0  0  0  0  0  0  0  0
   -4.0350   -2.9010    0.1700 H   0  0  0  0  0  0  0  0  0  0  0  0
   -3.2150   -2.4160    1.6730 H   0  0  0  0  0  0  0  0  0  0  0  0
   -3.6830   -0.1820    2.6880 H   0  0  0  0  0  0  0  0  0  0  0  0
   -4.8370    0.9260    1.9060 H   0  0  0  0  0  0  0  0  0  0  0  0
   -5.4240   -0.5530    2.7030 H   0  0  0  0  0  0  0  0  0  0  0  0
   -3.2100   -0.8240   -0.9480 H   0  0  0  0  0  0  0  0  0  0  0  0
   -3.5440    0.7680   -0.2260 H   0  0  0  0  0  0  0  0  0  0  0  0
    1.3690    0.4500   -0.8990 H   0  0  0  0  0  0  0  0  0  0  0  0
    1.4470    2.3210    1.5090 H   0  0  0  0  0  0  0  0  0  0  0  0
    2.4330    2.5220    0.0410 H   0  0  0  0  0  0  0  0  0  0  0  0
   -0.6150    2.3910    0.0750 H   0  0  0  0  0  0  0  0  0  0  0  0
    4.5500   -1.2650   -1.6470 H   0  0  0  0  0  0  0  0  0  0  0  0
   -6.9140   -1.7370    1.5440 H   0  0  0  0  0  0  0  0  0  0  0  0
   -9.0170   -0.5760   -1.9820 H   0  0  0  0  0  0  0  0  0  0  0  0
   -6.9260    0.3020   -2.9400 H   0  0  0  0  0  0  0  0  0  0  0  0
   -4.8290    0.1600   -1.6560 H   0  0  0  0  0  0  0  0  0  0  0  0
    0.2580   -0.3010    1.6950 H   0  0  0  0  0  0  0  0  0  0  0  0
    3.9590    0.9730   -0.3700 H   0  0  0  0  0  0  0  0  0  0  0  0
    7.1540   -3.5910   -3.2690 H   0  0  0  0  0  0  0  0  0  0  0  0
    7.5070   -0.3000    1.8440 H   0  0  0  0  0  0  0  0  0  0  0  0
    3.4350    1.4160    2.6200 H   0  0  0  0  0  0  0  0  0  0  0  0
 26 27  2  0  0  0  0
 25 26  1  0  0  0  0
  2  5  1  0  0  0  0
  1  5  1  0  0  0  0
 22 27  1  0  0  0  0
  2  3  1  0  0  0  0
 24 25  2  0  0  0  0
 14 15  1  0  0  0  0
  1 20  1  0  0  0  0
  3  6  1  0  0  0  0
 15 22  1  0  0  0  0
 22 23  2  0  0  0  0
 13 15  1  0  0  0  0
 15 16  1  0  0  0  0
  6 20  1  0  0  0  0
 19 20  1  0  0  0  0
 23 24  1  0  0  0  0
 24 36  1  0  0  0  0
 16 31  1  0  0  0  0
 17 31  1  0  0  0  0
 17 28  1  0  0  0  0
 18 28  1  0  0  0  0
 18 19  1  0  0  0  0
 17 35  2  0  0  0  0
  4 18  1  0  0  0  0
  4 34  2  0  0  0  0
  4 29  1  0  0  0  0
  7 29  1  0  0  0  0
 12 33  1  0  0  0  0
 10 11  1  0  0  0  0
 11 21  1  0  0  0  0
  7 12  1  0  0  0  0
  7  8  1  0  0  0  0
 10 30  1  0  0  0  0
  8 21  1  0  0  0  0
  9 21  1  0  0  0  0
  9 30  1  0  0  0  0
  9 32  2  0  0  0  0
 12 37  1  0  0  0  0
  1 38  1  0  0  0  0
  1 39  1  0  0  0  0
  2 40  1  0  0  0  0
  2 41  1  0  0  0  0
  3 42  1  0  0  0  0
  3 43  1  0  0  0  0
  5 44  1  0  0  0  0
  5 45  1  0  0  0  0
  6 46  1  0  0  0  0
  6 47  1  0  0  0  0
  7 48  1  0  0  0  0
  8 49  1  0  0  0  0
  8 50  1  0  0  0  0
 10 51  1  0  0  0  0
 10 52  1  0  0  0  0
 11 53  1  0  0  0  0
 11 54  1  0  0  0  0
 12 55  1  0  0  0  0
 13 56  1  0  0  0  0
 13 57  1  0  0  0  0
 13 58  1  0  0  0  0
 14 59  1  0  0  0  0
 14 60  1  0  0  0  0
 14 61  1  0  0  0  0
 16 62  1  0  0  0  0
 16 63  1  0  0  0  0
 18 64  1  0  0  0  0
 19 65  1  0  0  0  0
 19 66  1  0  0  0  0
 20 67  1  0  0  0  0
 21 68  1  0  0  0  0
 23 69  1  0  0  0  0
 25 70  1  0  0  0  0
 26 71  1  0  0  0  0
 27 72  1  0  0  0  0
 28 73  1  0  0  0  0
 29 74  1  0  0  0  0
 30 75  1  0  0  0  0
 33 76  1  0  0  0  0
 37 77  1  0  0  0  0
M  END
> <OPENEYE_ISO_SMILES>
CC(C)(COC(=O)N[C@@H](CC1CCCCC1)C(=O)N[C@@H](C[C@@H]2CCNC2=O)[C@H](O)S)c3cccc(c3)Cl

> <OPENEYE_INCHI>
InChI=1S/C27H40ClN3O5S/c1-27(2,19-9-6-10-20(28)15-19)16-36-26(35)31-21(13-17-7-4-3-5-8-17)24(33)30-22(25(34)37)14-18-11-12-29-23(18)32/h6,9-10,15,17-18,21-22,25,34,37H,3-5,7-8,11-14,16H2,1-2H3,(H,29,32)(H,30,33)(H,31,35)/t18-,21-,22-,25+/m0/s1

> <OPENEYE_INCHIKEY>
MEDRHFREPGGTSN-OPQSODGTSA-N

> <FORMULA>
C27H40ClN3O5S

$$$$
