BOC
  -OEChem-02242320023D

 18 17  0     0  0  0  0  0  0999 V2000
   -1.9560   -1.1840    2.5280 O   0  0  0  0  0  0  0  0  0  0  0  0
   -1.1380   -1.4290    3.3700 C   0  0  0  0  0  0  0  0  0  0  0  0
   -0.1080   -0.4450    3.3330 O   0  0  0  0  0  0  0  0  0  0  0  0
    0.5610   -0.3990    2.0720 C   0  0  0  0  0  0  0  0  0  0  0  0
   -0.4640   -0.0650    0.9890 C   0  0  0  0  0  0  0  0  0  0  0  0
    1.6270    0.6910    2.1570 C   0  0  0  0  0  0  0  0  0  0  0  0
    1.2040   -1.7600    1.8120 C   0  0  0  0  0  0  0  0  0  0  0  0
   -1.7680   -1.4990    4.6440 O   0  0  0  0  0  0  0  0  0  0  0  0
   -0.9610    0.8890    1.2040 H   0  0  0  0  0  0  0  0  0  0  0  0
    0.0000    0.0000    0.0000 H   0  0  0  0  0  0  0  0  0  0  0  0
   -1.2550   -0.8230    0.9520 H   0  0  0  0  0  0  0  0  0  0  0  0
    2.3380    0.4800    2.9640 H   0  0  0  0  0  0  0  0  0  0  0  0
    1.1750    1.6620    2.3900 H   0  0  0  0  0  0  0  0  0  0  0  0
    2.1850    0.7840    1.2190 H   0  0  0  0  0  0  0  0  0  0  0  0
    0.4460   -2.5520    1.7870 H   0  0  0  0  0  0  0  0  0  0  0  0
    1.7490   -1.7740    0.8630 H   0  0  0  0  0  0  0  0  0  0  0  0
    1.8990   -2.0230    2.6170 H   0  0  0  0  0  0  0  0  0  0  0  0
   -2.7240   -1.3270    4.5090 H   0  0  0  0  0  0  0  0  0  0  0  0
  1  2  2  0  0  0  0
  2  3  1  0  0  0  0
  3  4  1  0  0  0  0
  4  5  1  0  0  0  0
  4  6  1  0  0  0  0
  4  7  1  0  0  0  0
  2  8  1  0  0  0  0
  5  9  1  0  0  0  0
  5 10  1  0  0  0  0
  5 11  1  0  0  0  0
  6 12  1  0  0  0  0
  6 13  1  0  0  0  0
  6 14  1  0  0  0  0
  7 15  1  0  0  0  0
  7 16  1  0  0  0  0
  7 17  1  0  0  0  0
  8 18  1  0  0  0  0
M  END
> <OPENEYE_ISO_SMILES>
CC(C)(C)OC(=O)O

> <OPENEYE_INCHI>
InChI=1S/C5H10O3/c1-5(2,3)8-4(6)7/h1-3H3,(H,6,7)

> <OPENEYE_INCHIKEY>
XKXIQBVKMABYQJ-UHFFFAOYSA-N

> <FORMULA>
C5H10O3

$$$$
