HVB
  -OEChem-02242320023D

 14 13  0     0  0  0  0  0  0999 V2000
    1.9110   -0.0000   -0.4760 C   0  0  0  0  0  0  0  0  0  0  0  0
    0.9050   -0.0000    0.6780 C   0  0  0  0  0  0  0  0  0  0  0  0
   -0.4960    0.0000    0.1230 C   0  0  0  0  0  0  0  0  0  0  0  0
   -1.1100   -1.1450   -0.1210 N   0  3  0  0  0  0  0  0  0  0  0  0
   -1.1100    1.1450   -0.1210 N   0  0  0  0  0  0  0  0  0  0  0  0
    1.7620   -0.8900   -1.0870 H   0  0  0  0  0  0  0  0  0  0  0  0
    1.7620    0.8900   -1.0870 H   0  0  0  0  0  0  0  0  0  0  0  0
    2.9240   -0.0000   -0.0740 H   0  0  0  0  0  0  0  0  0  0  0  0
    1.0540   -0.8900    1.2890 H   0  0  0  0  0  0  0  0  0  0  0  0
    1.0540    0.8900    1.2890 H   0  0  0  0  0  0  0  0  0  0  0  0
   -0.6590   -1.9850    0.0580 H   0  0  0  0  0  0  0  0  0  0  0  0
   -0.6590    1.9850    0.0580 H   0  0  0  0  0  0  0  0  0  0  0  0
   -2.0120    1.1450   -0.4780 H   0  0  0  0  0  0  0  0  0  0  0  0
   -2.0120   -1.1450   -0.4780 H   0  0  0  0  0  0  0  0  0  0  0  0
  3  4  2  0  0  0  0
  3  5  1  0  0  0  0
  2  3  1  0  0  0  0
  1  2  1  0  0  0  0
  1  6  1  0  0  0  0
  1  7  1  0  0  0  0
  1  8  1  0  0  0  0
  2  9  1  0  0  0  0
  2 10  1  0  0  0  0
  4 11  1  0  0  0  0
  5 12  1  0  0  0  0
  5 13  1  0  0  0  0
  4 14  1  0  0  0  0
M  CHG  1   4   1
M  END
> <OPENEYE_ISO_SMILES>
CCC(=[NH2+])N

> <OPENEYE_INCHI>
InChI=1S/C3H8N2/c1-2-3(4)5/h2H2,1H3,(H3,4,5)/p+1

> <OPENEYE_INCHIKEY>
GNFWGDKKNWGGJY-UHFFFAOYSA-O

> <FORMULA>
C3H9N2+

$$$$
