@<TRIPOS>MOLECULE
/home/pku/3cl/gett_pdb/5SSK/5SSK_mol2/ligand/5SSK_RQR.pdb
 30 32 0 0 0
SMALL
GASTEIGER

@<TRIPOS>ATOM
      1  N1       -44.2450  -29.4670    2.1610 N.am  201  RQR201     -0.3038
      2  S1       -48.2460  -28.7610    6.9520 S.2   201  RQR201     -0.0770
      3  C13      -44.5350  -29.3490    6.1380 C.ar  201  RQR201      0.1181
      4  O2       -43.8760  -33.7310    2.2640 O.co2 201  RQR201     -0.2457
      5  C12      -46.7200  -28.9910    6.2050 C.ar  201  RQR201      0.1121
      6  C11      -49.0230  -28.5880    5.4070 C.ar  201  RQR201     -0.0216
      7  O3       -42.7600  -32.0110    3.0750 O.co2 201  RQR201     -0.2457
      8  C10      -48.1020  -28.7010    4.3490 C.ar  201  RQR201     -0.0432
      9  C9       -46.8030  -28.9370    4.8320 C.ar  201  RQR201      0.0381
     10  C8       -45.5790  -29.0880    4.1650 C.ar  201  RQR201      0.1367
     11  C7       -45.5240  -29.1060    2.6590 C.2   201  RQR201      0.2636
     12  C6       -42.0490  -31.0630    0.5100 C.2   201  RQR201     -0.0724
     13  C5       -42.4490  -29.7150    0.5280 C.2   201  RQR201     -0.0671
     14  C4       -43.9880  -29.6880    0.7640 C.3   201  RQR201      0.0429
     15  C3       -44.4680  -31.0710    0.5380 C.3   201  RQR201     -0.0143
     16  C2       -43.3060  -31.9660    0.7050 C.3   201  RQR201      0.0808
     17  C1       -43.3050  -32.6140    2.1050 C.2   201  RQR201      0.3628
     18  O1       -46.4680  -28.9050    1.9480 O.2   201  RQR201     -0.2685
     19  N2       -45.5940  -29.1980    6.8940 N.ar  201  RQR201     -0.2283
     20  N3       -44.4560  -29.3220    4.8350 N.ar  201  RQR201     -0.2301
     21  H7       -43.6480  -29.6560    2.7310 H     201  RQR201      0.1496
     22  H10      -43.7510  -29.4560    6.6130 H     201  RQR201      0.1047
     23  H9       -49.9310  -28.4120    5.2740 H     201  RQR201      0.0694
     24  H8       -48.3240  -28.6410    3.4530 H     201  RQR201      0.0630
     25  H6       -41.1810  -31.3520    0.3300 H     201  RQR201      0.0578
     26  H5       -41.8780  -28.9620    0.5220 H     201  RQR201      0.0587
     27  H2       -44.4480  -29.0480    0.1810 H     201  RQR201      0.0543
     28  H3       -45.1530  -31.2940    1.1900 H     201  RQR201      0.0297
     29  H4       -44.8400  -31.1520   -0.3630 H     201  RQR201      0.0297
     30  H1       -43.3470  -32.6360   -0.0100 H     201  RQR201      0.0458
@<TRIPOS>BOND
     1    29    15    1
     2    30    16    1
     3    27    14    1
     4    25    12    1
     5    12    13    2
     6    12    16    1
     7    26    13    1
     8    13    14    1
     9    15    16    1
    10    15    14    1
    11    15    28    1
    12    16    17    1
    13    14     1    1
    14    18    11    2
    15    17     4   ar
    16    17     7   ar
    17     1    11   am
    18     1    21    1
    19    11    10    1
    20    24     8    1
    21    10     9   ar
    22    10    20   ar
    23     8     9   ar
    24     8     6   ar
    25     9     5   ar
    26    20     3   ar
    27    23     6    1
    28     6     2   ar
    29     3    22    1
    30     3    19   ar
    31     5    19   ar
    32     5     2   ar
