NXS
  -OEChem-02242320033D

 29 30  0     0  0  0  0  0  0999 V2000
   -0.2430   -0.1870   -0.3900 N   0  0  0  0  0  0  0  0  0  0  0  0
   -2.3980   -1.0880   -0.3400 N   0  0  0  0  0  0  0  0  0  0  0  0
    0.4630    1.0830   -0.1750 C   0  0  0  0  0  0  0  0  0  0  0  0
    0.3030   -1.2490    0.4650 C   0  0  0  0  0  0  0  0  0  0  0  0
    1.7740   -1.4830    0.1130 C   0  0  0  0  0  0  0  0  0  0  0  0
   -1.6040   -0.0380   -0.1880 C   0  0  0  0  0  0  0  0  0  0  0  0
   -3.3770    1.3250    0.3530 C   0  0  0  0  0  0  0  0  0  0  0  0
   -3.7040   -0.9800   -0.1540 C   0  0  0  0  0  0  0  0  0  0  0  0
    4.0160   -0.3960   -0.0900 C   0  0  0  0  0  0  0  0  0  0  0  0
    2.5570   -0.1840    0.3190 C   0  0  0  0  0  0  0  0  0  0  0  0
    1.9380    0.9180   -0.5460 C   0  0  0  0  0  0  0  0  0  0  0  0
   -4.2370    0.2480    0.2030 C   0  0  0  0  0  0  0  0  0  0  0  0
   -2.0820    1.1500    0.1520 N   0  0  0  0  0  0  0  0  0  0  0  0
    4.7700    0.7800    0.2110 O   0  0  0  0  0  0  0  0  0  0  0  0
    0.0150    1.8570   -0.7990 H   0  0  0  0  0  0  0  0  0  0  0  0
    0.3820    1.3710    0.8730 H   0  0  0  0  0  0  0  0  0  0  0  0
    0.2230   -0.9500    1.5110 H   0  0  0  0  0  0  0  0  0  0  0  0
   -0.2590   -2.1680    0.3060 H   0  0  0  0  0  0  0  0  0  0  0  0
    2.1830   -2.2610    0.7590 H   0  0  0  0  0  0  0  0  0  0  0  0
    1.8530   -1.7960   -0.9280 H   0  0  0  0  0  0  0  0  0  0  0  0
   -3.7610    2.2960    0.6290 H   0  0  0  0  0  0  0  0  0  0  0  0
   -4.3460   -1.8390   -0.2790 H   0  0  0  0  0  0  0  0  0  0  0  0
    4.4280   -1.2420    0.4600 H   0  0  0  0  0  0  0  0  0  0  0  0
    4.0680   -0.5970   -1.1600 H   0  0  0  0  0  0  0  0  0  0  0  0
    2.5110    0.1070    1.3680 H   0  0  0  0  0  0  0  0  0  0  0  0
    2.0200    0.6440   -1.5980 H   0  0  0  0  0  0  0  0  0  0  0  0
    2.4640    1.8560   -0.3720 H   0  0  0  0  0  0  0  0  0  0  0  0
   -5.2990    0.3640    0.3610 H   0  0  0  0  0  0  0  0  0  0  0  0
    5.7070    0.7170   -0.0220 H   0  0  0  0  0  0  0  0  0  0  0  0
 10 11  1  0  0  0  0
  3 11  1  0  0  0  0
  5 10  1  0  0  0  0
  9 10  1  0  0  0  0
  1  3  1  0  0  0  0
  4  5  1  0  0  0  0
  1  4  1  0  0  0  0
  9 14  1  0  0  0  0
  1  6  1  0  0  0  0
  2  6  2  0  0  0  0
  6 13  1  0  0  0  0
  2  8  1  0  0  0  0
  7 13  2  0  0  0  0
  8 12  2  0  0  0  0
  7 12  1  0  0  0  0
  3 15  1  0  0  0  0
  3 16  1  0  0  0  0
  4 17  1  0  0  0  0
  4 18  1  0  0  0  0
  5 19  1  0  0  0  0
  5 20  1  0  0  0  0
  7 21  1  0  0  0  0
  8 22  1  0  0  0  0
  9 23  1  0  0  0  0
  9 24  1  0  0  0  0
 10 25  1  0  0  0  0
 11 26  1  0  0  0  0
 11 27  1  0  0  0  0
 12 28  1  0  0  0  0
 14 29  1  0  0  0  0
M  END
> <OPENEYE_ISO_SMILES>
c1cnc(nc1)N2CCC(CC2)CO

> <OPENEYE_INCHI>
InChI=1S/C10H15N3O/c14-8-9-2-6-13(7-3-9)10-11-4-1-5-12-10/h1,4-5,9,14H,2-3,6-8H2

> <OPENEYE_INCHIKEY>
ZUNGTEUNVMHDIX-UHFFFAOYSA-N

> <FORMULA>
C10H15N3O

$$$$
