GVH
  -OEChem-02242320023D

 15 16  0     0  0  0  0  0  0999 V2000
    2.9910   -1.6200   -1.9900 N   0  0  0  0  0  0  0  0  0  0  0  0
    1.9310   -1.0400   -2.5840 C   0  0  0  0  0  0  0  0  0  0  0  0
    0.8380   -0.4480   -1.9590 C   0  0  0  0  0  0  0  0  0  0  0  0
    0.8200   -0.4440   -0.5550 C   0  0  0  0  0  0  0  0  0  0  0  0
   -0.0190    0.0230   -2.9890 C   0  0  0  0  0  0  0  0  0  0  0  0
    1.8940   -1.0320    0.1110 C   0  0  0  0  0  0  0  0  0  0  0  0
    2.9210   -1.5880   -0.6390 C   0  0  0  0  0  0  0  0  0  0  0  0
    1.7500   -0.9360   -3.9380 N   0  0  0  0  0  0  0  0  0  0  0  0
    0.5680   -0.2910   -4.1960 C   0  0  0  0  0  0  0  0  0  0  0  0
    3.7670   -2.0490   -0.1360 H   0  0  0  0  0  0  0  0  0  0  0  0
    2.3910   -1.2810   -4.6390 H   0  0  0  0  0  0  0  0  0  0  0  0
   -0.0000    0.0000   -0.0000 H   0  0  0  0  0  0  0  0  0  0  0  0
   -0.9630    0.5370   -2.8670 H   0  0  0  0  0  0  0  0  0  0  0  0
    1.9250   -1.0530    1.1950 H   0  0  0  0  0  0  0  0  0  0  0  0
    0.2500   -0.1130   -5.2130 H   0  0  0  0  0  0  0  0  0  0  0  0
  1  2  1  0  0  0  0
  2  3  2  0  0  0  0
  3  4  1  0  0  0  0
  3  5  1  0  0  0  0
  4  6  2  0  0  0  0
  1  7  2  0  0  0  0
  6  7  1  0  0  0  0
  2  8  1  0  0  0  0
  5  9  2  0  0  0  0
  8  9  1  0  0  0  0
  7 10  1  0  0  0  0
  8 11  1  0  0  0  0
  4 12  1  0  0  0  0
  5 13  1  0  0  0  0
  6 14  1  0  0  0  0
  9 15  1  0  0  0  0
M  END
> <OPENEYE_ISO_SMILES>
c1cc2cc[nH]c2nc1

> <OPENEYE_INCHI>
InChI=1S/C7H6N2/c1-2-6-3-5-9-7(6)8-4-1/h1-5H,(H,8,9)

> <OPENEYE_INCHIKEY>
MVXVYAKCVDQRLW-UHFFFAOYSA-N

> <FORMULA>
C7H6N2

$$$$
