SFY
  -OEChem-02242320043D

 28 29  0     0  0  0  0  0  0999 V2000
    0.5840    1.6440   -1.6120 O   0  0  0  0  0  0  0  0  0  0  0  0
    0.1230    1.7550   -0.2730 S   0  0  0  0  0  0  0  0  0  0  0  0
   -0.3500    2.9720    0.2880 O   0  0  0  0  0  0  0  0  0  0  0  0
   -1.1830    0.5850   -0.0990 C   0  0  0  0  0  0  0  0  0  0  0  0
   -2.1430    0.7640    0.8810 C   0  0  0  0  0  0  0  0  0  0  0  0
   -3.1680   -0.1510    1.0200 C   0  0  0  0  0  0  0  0  0  0  0  0
   -3.2340   -1.2520    0.1750 C   0  0  0  0  0  0  0  0  0  0  0  0
   -4.2700   -2.1790    0.3130 N   0  0  0  0  0  0  0  0  0  0  0  0
   -2.2690   -1.4280   -0.8080 C   0  0  0  0  0  0  0  0  0  0  0  0
   -1.2500   -0.5060   -0.9460 C   0  0  0  0  0  0  0  0  0  0  0  0
    1.3680    1.2470    0.6940 N   0  0  0  0  0  0  0  0  0  0  0  0
    2.0220    0.0530    0.4150 C   0  0  0  0  0  0  0  0  0  0  0  0
    3.0670   -0.3680    1.2310 C   0  0  0  0  0  0  0  0  0  0  0  0
    3.7090   -1.5580    0.9420 C   0  0  0  0  0  0  0  0  0  0  0  0
    3.2830   -2.2910   -0.1570 C   0  0  0  0  0  0  0  0  0  0  0  0
    2.2390   -1.8140   -0.9250 C   0  0  0  0  0  0  0  0  0  0  0  0
    1.6410   -0.6770   -0.6230 N   0  0  0  0  0  0  0  0  0  0  0  0
   -2.0910    1.6190    1.5380 H   0  0  0  0  0  0  0  0  0  0  0  0
   -3.9170   -0.0120    1.7860 H   0  0  0  0  0  0  0  0  0  0  0  0
   -4.9440   -2.0550    0.9990 H   0  0  0  0  0  0  0  0  0  0  0  0
   -4.3150   -2.9470   -0.2780 H   0  0  0  0  0  0  0  0  0  0  0  0
   -2.3200   -2.2800   -1.4700 H   0  0  0  0  0  0  0  0  0  0  0  0
   -0.4990   -0.6420   -1.7100 H   0  0  0  0  0  0  0  0  0  0  0  0
    1.6400    1.7830    1.4550 H   0  0  0  0  0  0  0  0  0  0  0  0
    3.3730    0.2280    2.0790 H   0  0  0  0  0  0  0  0  0  0  0  0
    4.5240   -1.9100    1.5580 H   0  0  0  0  0  0  0  0  0  0  0  0
    3.7630   -3.2250   -0.4100 H   0  0  0  0  0  0  0  0  0  0  0  0
    1.9040   -2.3810   -1.7810 H   0  0  0  0  0  0  0  0  0  0  0  0
 14 15  2  0  0  0  0
 15 16  1  0  0  0  0
 13 14  1  0  0  0  0
 16 17  2  0  0  0  0
 12 13  2  0  0  0  0
 12 17  1  0  0  0  0
 11 12  1  0  0  0  0
  1  2  2  0  0  0  0
  2 11  1  0  0  0  0
  7  8  1  0  0  0  0
  9 10  2  0  0  0  0
  7  9  1  0  0  0  0
  4 10  1  0  0  0  0
  6  7  2  0  0  0  0
  5  6  1  0  0  0  0
  4  5  2  0  0  0  0
  2  4  1  0  0  0  0
  2  3  2  0  0  0  0
  5 18  1  0  0  0  0
  6 19  1  0  0  0  0
  8 20  1  0  0  0  0
  8 21  1  0  0  0  0
  9 22  1  0  0  0  0
 10 23  1  0  0  0  0
 11 24  1  0  0  0  0
 13 25  1  0  0  0  0
 14 26  1  0  0  0  0
 15 27  1  0  0  0  0
 16 28  1  0  0  0  0
M  END
> <OPENEYE_ISO_SMILES>
c1ccnc(c1)NS(=O)(=O)c2ccc(cc2)N

> <OPENEYE_INCHI>
InChI=1S/C11H11N3O2S/c12-9-4-6-10(7-5-9)17(15,16)14-11-3-1-2-8-13-11/h1-8H,12H2,(H,13,14)

> <OPENEYE_INCHIKEY>
GECHUMIMRBOMGK-UHFFFAOYSA-N

> <FORMULA>
C11H11N3O2S

$$$$
