@<TRIPOS>MOLECULE
/home/pku/3cl/gett_pdb/7RW0/7RW0_mol2/ligand/7RW0_7YZ.pdb
 40 42 0 0 0
SMALL
GASTEIGER

@<TRIPOS>ATOM
      1  C1        -5.7490  -20.6380  -17.7170 C.ar  401  7YZ401      0.0222
      2  C11       -9.9100  -17.4190  -18.3480 C.3   401  7YZ401      0.1760
      3  C12      -10.0760  -16.1390  -17.5900 C.2   401  7YZ401      0.2617
      4  C13       -7.5870  -12.4160  -17.9290 C.3   401  7YZ401      0.0022
      5  C14       -9.8070  -13.7350  -17.6130 C.3   401  7YZ401      0.1728
      6  C15      -11.2570  -13.3140  -17.5900 C.2   401  7YZ401      0.2612
      7  C16       -6.8650  -13.6240  -17.3190 C.3   401  7YZ401      0.0001
      8  C17      -13.1540  -12.3280  -16.4780 C.3   401  7YZ401      0.1287
      9  C18       -5.4110  -13.3470  -16.9200 C.3   401  7YZ401      0.0000
     10  C19      -14.0550  -13.1570  -15.5470 C.3   401  7YZ401      0.0335
     11  C2        -6.2900  -21.9110  -17.9220 C.ar  401  7YZ401      0.0107
     12  C20      -14.0980  -14.6470  -15.9260 C.3   401  7YZ401      0.0818
     13  C21      -14.7850  -14.9010  -17.2650 C.3   401  7YZ401      0.0326
     14  C22      -15.6050  -16.1850  -17.0690 C.3   401  7YZ401      0.1156
     15  C23       -4.7430  -12.2110  -17.6920 C.3   401  7YZ401      0.0000
     16  C24      -14.8980  -15.5130  -14.9690 C.2   401  7YZ401      0.2410
     17  C25       -5.3020  -12.0890  -19.0980 C.3   401  7YZ401      0.0000
     18  C26       -6.7930  -11.7400  -19.0480 C.3   401  7YZ401      0.0001
     19  C3        -6.0050  -22.5770  -19.1240 C.ar  401  7YZ401      0.0575
     20  C30      -11.2680  -18.0230  -18.6980 C.3   401  7YZ401      0.0291
     21  C31      -11.0710  -19.3260  -19.4690 C.3   401  7YZ401      0.0023
     22  C32      -12.1670  -17.0500  -19.4540 C.3   401  7YZ401      0.0023
     23  C34       -8.9870  -12.7620  -18.4640 C.3   401  7YZ401      0.0311
     24  C4        -5.1970  -21.9900  -20.0910 C.ar  401  7YZ401      0.0114
     25  C5        -4.6590  -20.7350  -19.8730 C.ar  401  7YZ401      0.0007
     26  C6        -4.9400  -20.0620  -18.6920 C.ar  401  7YZ401     -0.0006
     27  C7        -6.0040  -19.8480  -16.4600 C.3   401  7YZ401      0.2368
     28  C8       -13.1150  -10.8410  -16.0930 C.3   401  7YZ401      0.2036
     29  C9        -7.8910  -18.4630  -17.4820 C.2   401  7YZ401      0.4218
     30  N10       -9.2160  -18.3700  -17.5250 N.am  401  7YZ401     -0.1611
     31  N13       -9.6740  -15.0440  -18.2250 N.am  401  7YZ401     -0.1963
     32  N16      -11.7790  -12.8150  -16.4710 N.am  401  7YZ401     -0.2030
     33  N23      -15.7150  -16.3280  -15.6330 N.am  401  7YZ401     -0.2054
     34  O26      -14.7680  -15.4870  -13.7480 O.2   401  7YZ401     -0.2734
     35  O29       -7.1510  -17.8800  -18.2590 O.2   401  7YZ401     -0.2245
     36  O33      -10.5600  -16.1180  -16.4610 O.2   401  7YZ401     -0.2715
     37  O38      -11.9550  -13.4420  -18.5860 O.2   401  7YZ401     -0.2715
     38  O8        -7.3360  -19.3130  -16.4400 O.3   401  7YZ401     -0.4285
     39  O9       -14.4430  -10.3030  -16.0120 O.3   401  7YZ401     -0.2185
     40 CL7        -6.6600  -24.2130  -19.4830 Cl    401  7YZ401     -0.0823
@<TRIPOS>BOND
     1    24    25   ar
     2    24    19   ar
     3    25    26   ar
     4    40    19    1
     5    21    20    1
     6    22    20    1
     7    19    11   ar
     8    17    18    1
     9    17    15    1
    10    18     4    1
    11    20     2    1
    12    26     1   ar
    13    37     6    2
    14    23     4    1
    15    23     5    1
    16     2     3    1
    17     2    30    1
    18    35    29    2
    19    31     5    1
    20    31     3   am
    21     4     7    1
    22    11     1   ar
    23     1    27    1
    24    15     9    1
    25     5     6    1
    26     6    32   am
    27     3    36    2
    28    30    29   am
    29    29    38    1
    30     7     9    1
    31    13    14    1
    32    13    12    1
    33    14    33    1
    34     8    32    1
    35     8    28    1
    36     8    10    1
    37    27    38    1
    38    28    39    1
    39    12    10    1
    40    12    16    1
    41    33    16   am
    42    16    34    2
