4F5
  -OEChem-02242320003D

 64 67  0     1  0  0  0  0  0999 V2000
    6.9420   -3.6480    0.7050 C   0  0  0  0  0  0  0  0  0  0  0  0
    3.1180   -2.0100   -0.4400 C   0  0  0  0  0  0  0  0  0  0  0  0
    1.9670   -1.3190   -0.7620 C   0  0  0  0  0  0  0  0  0  0  0  0
    0.0970    1.2210   -0.7500 C   0  0  2  0  0  0  0  0  0  0  0  0
   -0.4740    2.2870    0.1490 C   0  0  0  0  0  0  0  0  0  0  0  0
   -1.4280    4.5010    0.5010 C   0  0  0  0  0  0  0  0  0  0  0  0
   -1.2710   -1.6310    0.8560 O   0  0  0  0  0  0  0  0  0  0  0  0
   -1.1980   -0.6020    0.2180 C   0  0  0  0  0  0  0  0  0  0  0  0
    0.0080   -0.0800   -0.0820 N   0  0  0  0  0  0  0  0  0  0  0  0
    1.1760   -0.7810    0.2440 C   0  0  0  0  0  0  0  0  0  0  0  0
    1.5420   -0.9390    1.5750 C   0  0  0  0  0  0  0  0  0  0  0  0
    2.6930   -1.6300    1.8960 C   0  0  0  0  0  0  0  0  0  0  0  0
    3.4840   -2.1680    0.8900 C   0  0  0  0  0  0  0  0  0  0  0  0
    4.6490   -2.8740    1.2170 N   0  0  0  0  0  0  0  0  0  0  0  0
    5.7260   -2.8100    0.4080 C   0  0  0  0  0  0  0  0  0  0  0  0
    5.7150   -2.0770   -0.5580 O   0  0  0  0  0  0  0  0  0  0  0  0
   -0.8730    3.4640   -0.3720 N   0  0  0  0  0  0  0  0  0  0  0  0
   -1.7980    5.7280   -0.3350 C   0  0  0  0  0  0  0  0  0  0  0  0
   -2.6790    3.9630    1.1990 C   0  0  0  0  0  0  0  0  0  0  0  0
   -0.3880    4.8940    1.5520 C   0  0  0  0  0  0  0  0  0  0  0  0
   -0.5760    2.0850    1.3400 O   0  0  0  0  0  0  0  0  0  0  0  0
    1.5410    1.5350   -1.0470 C   0  0  0  0  0  0  0  0  0  0  0  0
    2.4900    1.5000   -0.1100 C   0  0  0  0  0  0  0  0  0  0  0  0
    4.0410    1.9220   -0.8260 S   0  0  0  0  0  0  0  0  0  0  0  0
    3.2900    2.1280   -2.4030 C   0  0  0  0  0  0  0  0  0  0  0  0
    1.9840    1.8750   -2.3130 C   0  0  0  0  0  0  0  0  0  0  0  0
   -2.4540    0.0930   -0.2380 C   0  0  0  0  0  0  0  0  0  0  0  0
   -3.6240   -0.6680    0.2110 N   0  0  0  0  0  0  0  0  0  0  0  0
   -4.2580   -1.6790   -0.4700 C   0  0  0  0  0  0  0  0  0  0  0  0
   -4.0550   -2.2890   -1.7030 C   0  0  0  0  0  0  0  0  0  0  0  0
   -4.8910   -3.3060   -2.1070 C   0  0  0  0  0  0  0  0  0  0  0  0
   -5.9340   -3.7250   -1.2910 C   0  0  0  0  0  0  0  0  0  0  0  0
   -6.1500   -3.1390   -0.0790 C   0  0  0  0  0  0  0  0  0  0  0  0
   -5.3140   -2.1030    0.3560 C   0  0  0  0  0  0  0  0  0  0  0  0
   -5.2820   -1.3530    1.4760 N   0  0  0  0  0  0  0  0  0  0  0  0
   -4.3120   -0.5110    1.4230 N   0  0  0  0  0  0  0  0  0  0  0  0
    6.6670   -4.7030    0.6940 H   0  0  0  0  0  0  0  0  0  0  0  0
    7.7040   -3.4640   -0.0530 H   0  0  0  0  0  0  0  0  0  0  0  0
    7.3340   -3.3850    1.6870 H   0  0  0  0  0  0  0  0  0  0  0  0
    3.7310   -2.4320   -1.2230 H   0  0  0  0  0  0  0  0  0  0  0  0
    1.6830   -1.1960   -1.7970 H   0  0  0  0  0  0  0  0  0  0  0  0
   -0.4670    1.1900   -1.6820 H   0  0  0  0  0  0  0  0  0  0  0  0
    0.9270   -0.5210    2.3580 H   0  0  0  0  0  0  0  0  0  0  0  0
    2.9780   -1.7520    2.9310 H   0  0  0  0  0  0  0  0  0  0  0  0
    4.6810   -3.4090    2.0250 H   0  0  0  0  0  0  0  0  0  0  0  0
   -0.7910    3.6260   -1.3250 H   0  0  0  0  0  0  0  0  0  0  0  0
   -0.9070    6.1110   -0.8320 H   0  0  0  0  0  0  0  0  0  0  0  0
   -2.5390    5.4480   -1.0830 H   0  0  0  0  0  0  0  0  0  0  0  0
   -2.2120    6.4990    0.3150 H   0  0  0  0  0  0  0  0  0  0  0  0
   -3.0930    4.7340    1.8490 H   0  0  0  0  0  0  0  0  0  0  0  0
   -3.4210    3.6830    0.4510 H   0  0  0  0  0  0  0  0  0  0  0  0
   -2.4160    3.0890    1.7950 H   0  0  0  0  0  0  0  0  0  0  0  0
    0.5030    5.2780    1.0550 H   0  0  0  0  0  0  0  0  0  0  0  0
   -0.8010    5.6660    2.2020 H   0  0  0  0  0  0  0  0  0  0  0  0
   -0.1240    4.0200    2.1470 H   0  0  0  0  0  0  0  0  0  0  0  0
    2.3310    1.2520    0.9280 H   0  0  0  0  0  0  0  0  0  0  0  0
    3.8090    2.4110   -3.3070 H   0  0  0  0  0  0  0  0  0  0  0  0
    1.3200    1.9360   -3.1640 H   0  0  0  0  0  0  0  0  0  0  0  0
   -2.4890    1.0960    0.1850 H   0  0  0  0  0  0  0  0  0  0  0  0
   -2.4590    0.1570   -1.3260 H   0  0  0  0  0  0  0  0  0  0  0  0
   -3.2450   -1.9670   -2.3410 H   0  0  0  0  0  0  0  0  0  0  0  0
   -4.7340   -3.7810   -3.0640 H   0  0  0  0  0  0  0  0  0  0  0  0
   -6.5820   -4.5240   -1.6220 H   0  0  0  0  0  0  0  0  0  0  0  0
   -6.9650   -3.4740    0.5450 H   0  0  0  0  0  0  0  0  0  0  0  0
  6 19  1  0  0  0  0
  5 21  2  0  0  0  0
  6 18  1  0  0  0  0
  6 20  1  0  0  0  0
  6 17  1  0  0  0  0
 31 32  2  0  0  0  0
 32 33  1  0  0  0  0
  5 17  1  0  0  0  0
  4  5  1  0  0  0  0
 30 31  1  0  0  0  0
 33 34  2  0  0  0  0
 29 30  2  0  0  0  0
 29 34  1  0  0  0  0
 34 35  1  0  0  0  0
  7  8  2  0  0  0  0
  4 22  1  0  0  0  0
  4  9  1  0  0  0  0
 28 29  1  0  0  0  0
 35 36  2  0  0  0  0
 22 23  2  0  0  0  0
 22 26  1  0  0  0  0
  8  9  1  0  0  0  0
  8 27  1  0  0  0  0
 23 24  1  0  0  0  0
  9 10  1  0  0  0  0
 28 36  1  0  0  0  0
 27 28  1  0  0  0  0
 25 26  2  0  0  0  0
 24 25  1  0  0  0  0
  3 10  2  0  0  0  0
  2  3  1  0  0  0  0
 10 11  1  0  0  0  0
  2 13  2  0  0  0  0
 11 12  2  0  0  0  0
 12 13  1  0  0  0  0
 13 14  1  0  0  0  0
 15 16  2  0  0  0  0
 14 15  1  0  0  0  0
  1 15  1  0  0  0  0
  1 37  1  0  0  0  0
  1 38  1  0  0  0  0
  1 39  1  0  0  0  0
  2 40  1  0  0  0  0
  3 41  1  0  0  0  0
  4 42  1  0  0  0  0
 11 43  1  0  0  0  0
 12 44  1  0  0  0  0
 14 45  1  0  0  0  0
 17 46  1  0  0  0  0
 18 47  1  0  0  0  0
 18 48  1  0  0  0  0
 18 49  1  0  0  0  0
 19 50  1  0  0  0  0
 19 51  1  0  0  0  0
 19 52  1  0  0  0  0
 20 53  1  0  0  0  0
 20 54  1  0  0  0  0
 20 55  1  0  0  0  0
 23 56  1  0  0  0  0
 25 57  1  0  0  0  0
 26 58  1  0  0  0  0
 27 59  1  0  0  0  0
 27 60  1  0  0  0  0
 30 61  1  0  0  0  0
 31 62  1  0  0  0  0
 32 63  1  0  0  0  0
 33 64  1  0  0  0  0
M  END
> <OPENEYE_ISO_SMILES>
CC(=O)Nc1ccc(cc1)N([C@H](c2ccsc2)C(=O)NC(C)(C)C)C(=O)Cn3c4ccccc4nn3

> <OPENEYE_INCHI>
InChI=1S/C26H28N6O3S/c1-17(33)27-19-9-11-20(12-10-19)32(23(34)15-31-22-8-6-5-7-21(22)29-30-31)24(18-13-14-36-16-18)25(35)28-26(2,3)4/h5-14,16,24H,15H2,1-4H3,(H,27,33)(H,28,35)/t24-/m1/s1

> <OPENEYE_INCHIKEY>
PJMHAMNPKRDQBR-XMMPIXPASA-N

> <FORMULA>
C26H28N6O3S

$$$$
