@<TRIPOS>MOLECULE
/home/pku/3cl/gett_pdb/7TX1/7TX1_mol2/ligand/7TX1_AR6.pdb
 57 60 0 0 0
SMALL
GASTEIGER

@<TRIPOS>ATOM
      1  N1        15.0450    1.5670    6.0950 N.2   201  AR6201     -0.2420
      2  C2        14.7610    0.3870    5.5290 C.2   201  AR6201      0.1049
      3  N3        14.6000    0.1400    4.2280 N.pl3 201  AR6201     -0.1840
      4  C4        14.7830    1.2270    3.4680 C.ar  201  AR6201      0.1528
      5  C5        15.1130    2.4960    3.9360 C.ar  201  AR6201      0.1287
      6  C6        15.2450    2.6270    5.3260 C.3   201  AR6201      0.2004
      7  N6        15.5700    3.8370    5.9220 N.3   201  AR6201     -0.2985
      8  N7        15.2360    3.3530    2.8680 N.ar  201  AR6201     -0.2346
      9  C8        14.9970    2.6060    1.7930 C.ar  201  AR6201      0.0999
     10  N9        14.7020    1.3270    2.1220 N.ar  201  AR6201     -0.2877
     11  PA        18.0220    1.4580   -1.6620 P.3   201  AR6201      0.2182
     12  PB        19.5770   -0.1790   -3.5710 P.3   201  AR6201      0.2182
     13  C1'       14.3910    0.1970    1.2480 C.3   201  AR6201      0.1665
     14  O1A       17.5930    2.4110   -2.7290 O.co2 201  AR6201     -0.5170
     15  O1B       20.4770   -1.3160   -3.2500 O.3   201  AR6201     -0.4371
     16  C1D       21.5770    4.5540   -2.3010 C.3   201  AR6201      0.1854
     17  O1D       21.3250    5.6690   -2.9710 O.3   201  AR6201     -0.3649
     18  C2'       13.9220    0.4730   -0.0660 C.3   201  AR6201      0.1285
     19  O2'       12.5040    0.6940    0.0020 O.3   201  AR6201     -0.3847
     20  O2A       18.4880    2.0190   -0.3660 O.3   201  AR6201     -0.4371
     21  O2B       18.3620   -0.4220   -4.3940 O.co2 201  AR6201     -0.5170
     22  C2D       23.0620    4.0470   -2.3480 C.3   201  AR6201      0.1339
     23  O2D       23.9600    5.1530   -2.0390 O.3   201  AR6201     -0.3841
     24  C3'       14.3220   -0.7800   -0.8730 C.3   201  AR6201      0.1135
     25  O3'       13.3810   -1.8170   -0.7470 O.3   201  AR6201     -0.3864
     26  O3A       19.1740    0.4540   -2.1360 O.3   201  AR6201     -0.2703
     27  C3D       23.2220    3.3980   -3.5360 C.3   201  AR6201      0.1141
     28  O3D       23.7190    4.2540   -4.6270 O.3   201  AR6201     -0.3864
     29  C4'       15.6320   -1.1870   -0.1420 C.3   201  AR6201      0.1133
     30  O4'       15.6540   -0.5610    1.0880 O.3   201  AR6201     -0.3456
     31  C4D       21.7760    2.8700   -3.8790 C.3   201  AR6201      0.1138
     32  O4D       20.9150    3.4150   -2.9530 O.3   201  AR6201     -0.3407
     33  C5'       16.9100   -0.8180   -0.9100 C.3   201  AR6201      0.0836
     34  O5'       16.7640    0.4910   -1.4360 O.3   201  AR6201     -0.3246
     35  C5D       21.6620    1.3770   -3.7760 C.3   201  AR6201      0.0837
     36  O5D       20.3720    1.0000   -4.2730 O.3   201  AR6201     -0.3246
     37  H2        14.6250   -0.3270    6.1070 H     201  AR6201      0.1015
     38  HN6       16.3880    4.0110    6.1190 H     201  AR6201      0.1209
     39 HN6A       14.9530    4.4080    6.0950 H     201  AR6201      0.1209
     40  H8        14.9970    2.9310    0.9220 H     201  AR6201      0.1030
     41  H1'       13.7650   -0.3550    1.6780 H     201  AR6201      0.0866
     42  H1D       21.2900    4.6280   -1.4100 H     201  AR6201      0.0935
     43  H2'       14.3550    1.2300   -0.4140 H     201  AR6201      0.0665
     44 HO2'       12.2800    1.2410   -0.5830 H     201  AR6201      0.2101
     45  H2D       23.1630    3.4080   -1.6680 H     201  AR6201      0.0671
     46 HO2D       24.4700    4.9340   -1.3980 H     201  AR6201      0.2101
     47  H3'       14.4850   -0.5700   -1.7730 H     201  AR6201      0.0647
     48 HO3'       13.1260   -2.0540   -1.5030 H     201  AR6201      0.2100
     49  H3D       23.8000    2.6670   -3.4190 H     201  AR6201      0.0648
     50 HO3D       23.7030    3.8230   -5.3580 H     201  AR6201      0.2100
     51  H4'       15.6180   -2.1170   -0.0050 H     201  AR6201      0.0647
     52  H4D       21.5350    3.1530   -4.7420 H     201  AR6201      0.0647
     53  H5'       17.0420   -1.4270   -1.6110 H     201  AR6201      0.0591
     54 H5'A       17.6440   -0.8440   -0.3260 H     201  AR6201      0.0591
     55  H5D       22.3550    0.9570   -4.3080 H     201  AR6201      0.0591
     56 H5DA       21.7500    1.1050   -2.8500 H     201  AR6201      0.0591
     57  HD1       20.8560    6.1910   -2.4900 H     201  AR6201      0.2126
@<TRIPOS>UNITY_ATOM_ATTR
14 1
charge -1
21 1
charge -1
@<TRIPOS>BOND
     1    50    28    1
     2    52    31    1
     3    28    27    1
     4    21    12    2
     5    55    35    1
     6    36    35    1
     7    36    12    1
     8    31    35    1
     9    31    27    1
    10    31    32    1
    11    35    56    1
    12    12    15    1
    13    12    26    1
    14    27    49    1
    15    27    22    1
    16    17    57    1
    17    17    16    1
    18    32    16    1
    19    14    11    2
    20    22    16    1
    21    22    23    1
    22    22    45    1
    23    16    42    1
    24    26    11    1
    25    23    46    1
    26    47    24    1
    27    11    34    1
    28    11    20    1
    29    53    33    1
    30    48    25    1
    31    34    33    1
    32    33    54    1
    33    33    29    1
    34    24    25    1
    35    24    29    1
    36    24    18    1
    37    44    19    1
    38    43    18    1
    39    29    51    1
    40    29    30    1
    41    18    19    1
    42    18    13    1
    43    40     9    1
    44    30    13    1
    45    13    41    1
    46    13    10    1
    47     9    10   ar
    48     9     8   ar
    49    10     4   ar
    50     8     5   ar
    51     4     5   ar
    52     4     3    1
    53     5     6    1
    54     3     2    1
    55     6     7    1
    56     6     1    1
    57     2     1    2
    58     2    37    1
    59     7    39    1
    60     7    38    1
