W3Y
  -OEChem-02242320043D

 24 25  0     1  0  0  0  0  0999 V2000
   -3.2630    0.9770   -0.0280 N   0  0  0  0  0  0  0  0  0  0  0  0
    0.1960    0.0560   -0.0700 C   0  0  0  0  0  0  0  0  0  0  0  0
    0.8320   -1.1690   -0.2200 C   0  0  0  0  0  0  0  0  0  0  0  0
    2.2110   -1.2360   -0.2040 C   0  0  0  0  0  0  0  0  0  0  0  0
    2.9590   -0.0840   -0.0380 C   0  0  0  0  0  0  0  0  0  0  0  0
    2.3280    1.1380    0.1120 C   0  0  0  0  0  0  0  0  0  0  0  0
    4.6930   -0.1710   -0.0170 Cl  0  0  0  0  0  0  0  0  0  0  0  0
    0.9490    1.2110    0.0960 C   0  0  0  0  0  0  0  0  0  0  0  0
   -1.2020    0.1270   -0.0910 N   0  0  0  0  0  0  0  0  0  0  0  0
   -1.9520    1.2370    0.0350 C   0  0  0  0  0  0  0  0  0  0  0  0
   -1.4910    2.3510    0.1890 O   0  0  0  0  0  0  0  0  0  0  0  0
   -3.5020   -0.3380   -0.1990 C   0  0  0  0  0  0  0  0  0  0  0  0
   -4.5820   -0.8810   -0.2890 O   0  0  0  0  0  0  0  0  0  0  0  0
   -2.1380   -0.9980   -0.2550 C   0  0  2  0  0  0  0  0  0  0  0  0
   -1.9790   -2.0020    0.8890 C   0  0  0  0  0  0  0  0  0  0  0  0
   -3.9560    1.6520    0.0440 H   0  0  0  0  0  0  0  0  0  0  0  0
    0.2490   -2.0690   -0.3490 H   0  0  0  0  0  0  0  0  0  0  0  0
    2.7070   -2.1890   -0.3200 H   0  0  0  0  0  0  0  0  0  0  0  0
    2.9140    2.0360    0.2420 H   0  0  0  0  0  0  0  0  0  0  0  0
    0.4560    2.1650    0.2080 H   0  0  0  0  0  0  0  0  0  0  0  0
   -1.9870   -1.4850   -1.2180 H   0  0  0  0  0  0  0  0  0  0  0  0
   -2.1840   -1.5070    1.8380 H   0  0  0  0  0  0  0  0  0  0  0  0
   -2.6790   -2.8260    0.7490 H   0  0  0  0  0  0  0  0  0  0  0  0
   -0.9600   -2.3880    0.8930 H   0  0  0  0  0  0  0  0  0  0  0  0
  5  7  1  0  0  0  0
  4  5  2  0  0  0  0
  3  4  1  0  0  0  0
  5  6  1  0  0  0  0
  2  3  2  0  0  0  0
  6  8  2  0  0  0  0
  2  8  1  0  0  0  0
  2  9  1  0  0  0  0
 14 15  1  0  0  0  0
  9 14  1  0  0  0  0
 12 14  1  0  0  0  0
  9 10  1  0  0  0  0
 10 11  2  0  0  0  0
  1 10  1  0  0  0  0
 12 13  2  0  0  0  0
  1 12  1  0  0  0  0
  1 16  1  0  0  0  0
  3 17  1  0  0  0  0
  4 18  1  0  0  0  0
  6 19  1  0  0  0  0
  8 20  1  0  0  0  0
 14 21  1  0  0  0  0
 15 22  1  0  0  0  0
 15 23  1  0  0  0  0
 15 24  1  0  0  0  0
M  END
> <OPENEYE_ISO_SMILES>
C[C@H]1C(=O)NC(=O)N1c2ccc(cc2)Cl

> <OPENEYE_INCHI>
InChI=1S/C10H9ClN2O2/c1-6-9(14)12-10(15)13(6)8-4-2-7(11)3-5-8/h2-6H,1H3,(H,12,14,15)/t6-/m0/s1

> <OPENEYE_INCHIKEY>
YRTFBBSKIRZNAW-LURJTMIESA-N

> <FORMULA>
C10H9ClN2O2

$$$$
