@<TRIPOS>MOLECULE
/home/pku/3cl/gett_pdb/5SPU/5SPU_mol2/ligand/5SPU_S7F.pdb
 38 39 0 0 0
SMALL
GASTEIGER

@<TRIPOS>ATOM
      1  C18      -36.6950  -21.4240   21.2020 C.3   201  S7F201      0.0316
      2  C15      -37.9070  -22.2990   23.1810 C.2   201  S7F201      0.2149
      3  C14      -37.8380  -21.0990   22.1710 C.3   201  S7F201      0.0497
      4  C13      -37.6070  -19.8160   22.8320 C.3   201  S7F201     -0.0395
      5  C12      -37.5110  -18.7290   21.8780 C.3   201  S7F201     -0.0378
      6  C11      -36.4170  -18.9970   20.8390 C.3   201  S7F201      0.0205
      7  C20      -33.2020  -19.4930   19.2520 C.ar  201  S7F201     -0.0277
      8  C01      -31.0000  -18.2910   19.6430 C.3   201  S7F201     -0.0364
      9  C02      -31.9030  -19.5140   19.7340 C.ar  201  S7F201     -0.0091
     10  C03      -31.4260  -20.6710   20.3100 C.ar  201  S7F201      0.1191
     11  C06      -33.4220  -21.7520   19.9560 C.ar  201  S7F201      0.0560
     12  C07      -33.9590  -20.6430   19.3530 C.ar  201  S7F201      0.1238
     13  N04      -30.0720  -20.7180   20.8180 N.pl3 201  S7F201     -0.3429
     14  N05      -32.1850  -21.7360   20.4070 N.ar  201  S7F201     -0.2385
     15  N10      -36.5930  -20.3520   20.1330 N.3   201  S7F201     -0.1758
     16  N16      -39.0490  -23.1850   23.1270 N.am  201  S7F201     -0.3291
     17  O09      -35.9000  -19.7420   17.6670 O.2   201  S7F201     -0.1528
     18  O17      -37.0300  -22.4930   23.9520 O.2   201  S7F201     -0.2757
     19  O19      -36.0030  -21.9750   18.1540 O.2   201  S7F201     -0.1528
     20  S08      -35.6620  -20.6870   18.7590 S.O2  201  S7F201      0.0623
     21 H181      -35.7530  -21.4940   21.7470 H     201  S7F201      0.0451
     22 H182      -36.8920  -22.3810   20.7280 H     201  S7F201      0.0451
     23 H141      -38.7610  -21.0420   21.6100 H     201  S7F201      0.0407
     24 H132      -38.4150  -19.6040   23.5140 H     201  S7F201      0.0273
     25 H131      -36.6750  -19.8680   23.3820 H     201  S7F201      0.0273
     26 H121      -38.4590  -18.6040   21.3640 H     201  S7F201      0.0278
     27 H122      -37.2790  -17.8040   22.3910 H     201  S7F201      0.0278
     28 H112      -36.4170  -18.1920   20.1260 H     201  S7F201      0.0444
     29 H111      -35.4610  -18.9920   21.3350 H     201  S7F201      0.0444
     30 H201      -33.6230  -18.6170   18.7970 H     201  S7F201      0.0641
     31 H011      -31.5650  -17.4580   19.2440 H     201  S7F201      0.0279
     32 H012      -30.1550  -18.5170   19.0030 H     201  S7F201      0.0279
     33 H013      -30.6400  -18.0420   20.6370 H     201  S7F201      0.0279
     34 H061      -34.0220  -22.6570   20.0490 H     201  S7F201      0.0850
     35 H042      -29.3200  -20.9950   20.2140 H     201  S7F201      0.1437
     36 H041      -29.8890  -20.4770   21.7690 H     201  S7F201      0.1437
     37 H161      -39.7840  -23.0110   22.4660 H     201  S7F201      0.1449
     38 H162      -39.1050  -23.9640   23.7500 H     201  S7F201      0.1449
@<TRIPOS>BOND
     1    17    20    2
     2    19    20    2
     3    20    12    1
     4    20    15    1
     5    30     7    1
     6    32     8    1
     7    31     8    1
     8     7    12   ar
     9     7     9   ar
    10    12    11   ar
    11     8     9    1
    12     8    33    1
    13     9    10   ar
    14    11    34    1
    15    11    14   ar
    16    28     6    1
    17    15     6    1
    18    15     1    1
    19    35    13    1
    20    10    14   ar
    21    10    13    1
    22    22     1    1
    23    13    36    1
    24     6    29    1
    25     6     5    1
    26     1    21    1
    27     1     3    1
    28    26     5    1
    29    23     3    1
    30     5    27    1
    31     5     4    1
    32     3     4    1
    33     3     2    1
    34    37    16    1
    35     4    25    1
    36     4    24    1
    37    16     2   am
    38    16    38    1
    39     2    18    2
