NNA
  -OEChem-02242320033D

112115  0     1  0  0  0  0  0999 V2000
    3.1930   -0.8540   -0.1570 C   0  0  0  0  0  0  0  0  0  0  0  0
    3.2460   -1.2750    0.9830 O   0  0  0  0  0  0  0  0  0  0  0  0
    4.2720   -0.9420   -0.9590 N   0  0  0  0  0  0  0  0  0  0  0  0
    5.5390   -1.4510   -0.4290 C   0  0  0  0  0  0  0  0  0  0  0  0
    5.3290   -2.8580    0.1330 C   0  0  0  0  0  0  0  0  0  0  0  0
    6.5790   -1.4990   -1.5500 C   0  0  0  0  0  0  0  0  0  0  0  0
    4.8340   -3.7830   -0.9810 C   0  0  0  0  0  0  0  0  0  0  0  0
    6.0840   -2.4240   -2.6640 C   0  0  0  0  0  0  0  0  0  0  0  0
    5.8740   -3.8320   -2.1020 C   0  0  0  0  0  0  0  0  0  0  0  0
    6.0330   -0.5260    0.6850 C   0  0  0  0  0  0  0  0  0  0  0  0
    6.2830    1.1430    0.0190 S   0  0  0  0  0  0  0  0  0  0  0  0
    7.3400    1.0990   -0.9290 O   0  0  0  0  0  0  0  0  0  0  0  0
    5.0210    1.6670   -0.3720 O   0  0  0  0  0  0  0  0  0  0  0  0
    6.8560    2.0490    1.4830 C   0  0  0  0  0  0  0  0  0  0  0  0
    8.1460    1.4110    2.0040 C   0  0  0  0  0  0  0  0  0  0  0  0
    7.1240    3.5070    1.1070 C   0  0  0  0  0  0  0  0  0  0  0  0
    5.7830    1.9910    2.5720 C   0  0  0  0  0  0  0  0  0  0  0  0
    2.0530   -0.3020   -0.6180 N   0  0  0  0  0  0  0  0  0  0  0  0
    0.9120   -0.1160    0.2810 C   0  0  1  0  0  0  0  0  0  0  0  0
    0.9980    1.2630    0.9370 C   0  0  0  0  0  0  0  0  0  0  0  0
    1.0150    2.3430   -0.1470 C   0  0  0  0  0  0  0  0  0  0  0  0
   -0.2140    1.4730    1.8460 C   0  0  0  0  0  0  0  0  0  0  0  0
    2.2800    1.3550    1.7670 C   0  0  0  0  0  0  0  0  0  0  0  0
   -0.3700   -0.2200   -0.5050 C   0  0  0  0  0  0  0  0  0  0  0  0
   -0.3880    0.0870   -1.6780 O   0  0  0  0  0  0  0  0  0  0  0  0
   -1.4960   -0.6540    0.0960 N   0  0  0  0  0  0  0  0  0  0  0  0
   -1.6920   -0.9880    1.5260 C   0  0  0  0  0  0  0  0  0  0  0  0
   -2.8190   -0.8990   -0.5230 C   0  0  1  0  0  0  0  0  0  0  0  0
   -3.3350   -2.1860    0.1570 C   0  0  2  0  0  0  0  0  0  0  0  0
   -2.5890   -2.2440    1.5130 C   0  0  1  0  0  0  0  0  0  0  0  0
   -2.3320   -3.3070    0.4340 C   0  0  0  0  0  0  0  0  0  0  0  0
   -2.8910   -4.7100    0.6780 C   0  0  0  0  0  0  0  0  0  0  0  0
   -0.9910   -3.2520   -0.3020 C   0  0  0  0  0  0  0  0  0  0  0  0
   -3.7510    0.2520   -0.2450 C   0  0  0  0  0  0  0  0  0  0  0  0
   -3.5090    1.0240    0.6580 O   0  0  0  0  0  0  0  0  0  0  0  0
   -4.8530    0.4240   -1.0010 N   0  0  0  0  0  0  0  0  0  0  0  0
   -5.7590    1.5430   -0.7310 C   0  0  1  0  0  0  0  0  0  0  0  0
   -5.2510    2.7960   -1.4480 C   0  0  0  0  0  0  0  0  0  0  0  0
   -3.9040    3.2120   -0.8540 C   0  0  0  0  0  0  0  0  0  0  0  0
   -3.3950    4.4640   -1.5710 C   0  0  0  0  0  0  0  0  0  0  0  0
   -2.0490    4.8810   -0.9760 C   0  0  0  0  0  0  0  0  0  0  0  0
   -7.1120    0.9550   -2.6460 O   0  0  0  0  0  0  0  0  0  0  0  0
   -7.1610    1.1990   -1.2380 C   0  0  1  0  0  0  0  0  0  0  0  0
   -7.8620   -1.0530   -1.1590 O   0  0  0  0  0  0  0  0  0  0  0  0
   -7.8870   -0.0050    0.7960 N   0  0  0  0  0  0  0  0  0  0  0  0
   -8.3740   -1.2040    1.4830 C   0  0  0  0  0  0  0  0  0  0  0  0
   -9.1520   -1.0060    2.7860 C   0  0  0  0  0  0  0  0  0  0  0  0
   -7.7270   -1.5630    2.8220 C   0  0  0  0  0  0  0  0  0  0  0  0
   -7.6620   -0.0340   -0.5320 C   0  0  0  0  0  0  0  0  0  0  0  0
    4.2090   -0.6700   -1.8880 H   0  0  0  0  0  0  0  0  0  0  0  0
    6.2720   -3.2370    0.5280 H   0  0  0  0  0  0  0  0  0  0  0  0
    4.5880   -2.8240    0.9320 H   0  0  0  0  0  0  0  0  0  0  0  0
    6.7280   -0.4960   -1.9500 H   0  0  0  0  0  0  0  0  0  0  0  0
    7.5220   -1.8780   -1.1560 H   0  0  0  0  0  0  0  0  0  0  0  0
    4.6850   -4.7860   -0.5810 H   0  0  0  0  0  0  0  0  0  0  0  0
    3.8910   -3.4050   -1.3760 H   0  0  0  0  0  0  0  0  0  0  0  0
    5.1410   -2.0460   -3.0590 H   0  0  0  0  0  0  0  0  0  0  0  0
    6.8250   -2.4590   -3.4630 H   0  0  0  0  0  0  0  0  0  0  0  0
    6.8170   -4.2100   -1.7080 H   0  0  0  0  0  0  0  0  0  0  0  0
    5.5220   -4.4910   -2.8960 H   0  0  0  0  0  0  0  0  0  0  0  0
    5.2930   -0.4910    1.4840 H   0  0  0  0  0  0  0  0  0  0  0  0
    6.9760   -0.9040    1.0800 H   0  0  0  0  0  0  0  0  0  0  0  0
    8.9110    1.4530    1.2280 H   0  0  0  0  0  0  0  0  0  0  0  0
    8.4900    1.9560    2.8830 H   0  0  0  0  0  0  0  0  0  0  0  0
    7.9550    0.3720    2.2710 H   0  0  0  0  0  0  0  0  0  0  0  0
    6.2050    3.9610    0.7360 H   0  0  0  0  0  0  0  0  0  0  0  0
    7.4680    4.0520    1.9870 H   0  0  0  0  0  0  0  0  0  0  0  0
    7.8890    3.5490    0.3320 H   0  0  0  0  0  0  0  0  0  0  0  0
    5.5920    0.9510    2.8390 H   0  0  0  0  0  0  0  0  0  0  0  0
    6.1270    2.5350    3.4510 H   0  0  0  0  0  0  0  0  0  0  0  0
    4.8640    2.4450    2.2000 H   0  0  0  0  0  0  0  0  0  0  0  0
    1.9880   -0.0280   -1.5470 H   0  0  0  0  0  0  0  0  0  0  0  0
    0.9280   -0.8870    1.0520 H   0  0  0  0  0  0  0  0  0  0  0  0
    0.1010    2.2780   -0.7390 H   0  0  0  0  0  0  0  0  0  0  0  0
    1.0760    3.3260    0.3190 H   0  0  0  0  0  0  0  0  0  0  0  0
    1.8780    2.1940   -0.7950 H   0  0  0  0  0  0  0  0  0  0  0  0
   -0.2070    0.7250    2.6400 H   0  0  0  0  0  0  0  0  0  0  0  0
   -0.1710    2.4690    2.2850 H   0  0  0  0  0  0  0  0  0  0  0  0
   -1.1290    1.3720    1.2620 H   0  0  0  0  0  0  0  0  0  0  0  0
    3.1450    1.3050    1.1050 H   0  0  0  0  0  0  0  0  0  0  0  0
    2.2930    2.2980    2.3130 H   0  0  0  0  0  0  0  0  0  0  0  0
    2.3150    0.5250    2.4730 H   0  0  0  0  0  0  0  0  0  0  0  0
   -0.7360   -1.2080    1.9990 H   0  0  0  0  0  0  0  0  0  0  0  0
   -2.1930   -0.1680    2.0420 H   0  0  0  0  0  0  0  0  0  0  0  0
   -2.7140   -1.0540   -1.5970 H   0  0  0  0  0  0  0  0  0  0  0  0
   -4.3990   -2.4080    0.0770 H   0  0  0  0  0  0  0  0  0  0  0  0
   -3.1000   -2.5100    2.4380 H   0  0  0  0  0  0  0  0  0  0  0  0
   -3.4530   -5.0350   -0.1980 H   0  0  0  0  0  0  0  0  0  0  0  0
   -2.0700   -5.4020    0.8610 H   0  0  0  0  0  0  0  0  0  0  0  0
   -3.5510   -4.6920    1.5460 H   0  0  0  0  0  0  0  0  0  0  0  0
   -0.4720   -2.3290   -0.0420 H   0  0  0  0  0  0  0  0  0  0  0  0
   -0.3810   -4.1070   -0.0100 H   0  0  0  0  0  0  0  0  0  0  0  0
   -1.1660   -3.2800   -1.3770 H   0  0  0  0  0  0  0  0  0  0  0  0
   -5.0470   -0.1930   -1.7240 H   0  0  0  0  0  0  0  0  0  0  0  0
   -5.7970    1.7300    0.3420 H   0  0  0  0  0  0  0  0  0  0  0  0
   -5.1280    2.5820   -2.5100 H   0  0  0  0  0  0  0  0  0  0  0  0
   -5.9700    3.6050   -1.3210 H   0  0  0  0  0  0  0  0  0  0  0  0
   -4.0260    3.4260    0.2080 H   0  0  0  0  0  0  0  0  0  0  0  0
   -3.1850    2.4030   -0.9810 H   0  0  0  0  0  0  0  0  0  0  0  0
   -3.2730    4.2510   -2.6330 H   0  0  0  0  0  0  0  0  0  0  0  0
   -4.1150    5.2730   -1.4440 H   0  0  0  0  0  0  0  0  0  0  0  0
   -2.1710    5.0950    0.0860 H   0  0  0  0  0  0  0  0  0  0  0  0
   -1.3290    4.0720   -1.1040 H   0  0  0  0  0  0  0  0  0  0  0  0
   -1.6860    5.7730   -1.4870 H   0  0  0  0  0  0  0  0  0  0  0  0
   -6.5290    0.2250   -2.8980 H   0  0  0  0  0  0  0  0  0  0  0  0
   -7.8350    2.0320   -1.0380 H   0  0  0  0  0  0  0  0  0  0  0  0
   -7.7270    0.8090    1.2980 H   0  0  0  0  0  0  0  0  0  0  0  0
   -8.6800   -2.0260    0.8350 H   0  0  0  0  0  0  0  0  0  0  0  0
   -9.3010    0.0170    3.1320 H   0  0  0  0  0  0  0  0  0  0  0  0
   -9.9680   -1.6970    2.9950 H   0  0  0  0  0  0  0  0  0  0  0  0
   -7.6070   -2.6210    3.0550 H   0  0  0  0  0  0  0  0  0  0  0  0
   -6.9390   -0.9070    3.1920 H   0  0  0  0  0  0  0  0  0  0  0  0
  1  2  2  0  0  0  0
  1  3  1  0  0  0  0
  1 18  1  0  0  0  0
  3  4  1  0  0  0  0
  4  5  1  0  0  0  0
  4  6  1  0  0  0  0
  4 10  1  0  0  0  0
  5  7  1  0  0  0  0
  6  8  1  0  0  0  0
  7  9  1  0  0  0  0
  8  9  1  0  0  0  0
 10 11  1  0  0  0  0
 11 12  2  0  0  0  0
 11 13  2  0  0  0  0
 11 14  1  0  0  0  0
 14 15  1  0  0  0  0
 14 16  1  0  0  0  0
 14 17  1  0  0  0  0
 18 19  1  0  0  0  0
 19 20  1  0  0  0  0
 19 24  1  0  0  0  0
 20 21  1  0  0  0  0
 20 22  1  0  0  0  0
 20 23  1  0  0  0  0
 24 25  2  0  0  0  0
 24 26  1  0  0  0  0
 26 27  1  0  0  0  0
 26 28  1  0  0  0  0
 27 30  1  0  0  0  0
 28 29  1  0  0  0  0
 28 34  1  0  0  0  0
 29 30  1  0  0  0  0
 29 31  1  0  0  0  0
 30 31  1  0  0  0  0
 31 32  1  0  0  0  0
 31 33  1  0  0  0  0
 34 35  2  0  0  0  0
 34 36  1  0  0  0  0
 36 37  1  0  0  0  0
 37 38  1  0  0  0  0
 37 43  1  0  0  0  0
 38 39  1  0  0  0  0
 39 40  1  0  0  0  0
 40 41  1  0  0  0  0
 42 43  1  0  0  0  0
 43 49  1  0  0  0  0
 44 49  2  0  0  0  0
 45 46  1  0  0  0  0
 45 49  1  0  0  0  0
 46 47  1  0  0  0  0
 46 48  1  0  0  0  0
 47 48  1  0  0  0  0
  3 50  1  0  0  0  0
  5 51  1  0  0  0  0
  5 52  1  0  0  0  0
  6 53  1  0  0  0  0
  6 54  1  0  0  0  0
  7 55  1  0  0  0  0
  7 56  1  0  0  0  0
  8 57  1  0  0  0  0
  8 58  1  0  0  0  0
  9 59  1  0  0  0  0
  9 60  1  0  0  0  0
 10 61  1  0  0  0  0
 10 62  1  0  0  0  0
 15 63  1  0  0  0  0
 15 64  1  0  0  0  0
 15 65  1  0  0  0  0
 16 66  1  0  0  0  0
 16 67  1  0  0  0  0
 16 68  1  0  0  0  0
 17 69  1  0  0  0  0
 17 70  1  0  0  0  0
 17 71  1  0  0  0  0
 18 72  1  0  0  0  0
 19 73  1  0  0  0  0
 21 74  1  0  0  0  0
 21 75  1  0  0  0  0
 21 76  1  0  0  0  0
 22 77  1  0  0  0  0
 22 78  1  0  0  0  0
 22 79  1  0  0  0  0
 23 80  1  0  0  0  0
 23 81  1  0  0  0  0
 23 82  1  0  0  0  0
 27 83  1  0  0  0  0
 27 84  1  0  0  0  0
 28 85  1  0  0  0  0
 29 86  1  0  0  0  0
 30 87  1  0  0  0  0
 32 88  1  0  0  0  0
 32 89  1  0  0  0  0
 32 90  1  0  0  0  0
 33 91  1  0  0  0  0
 33 92  1  0  0  0  0
 33 93  1  0  0  0  0
 36 94  1  0  0  0  0
 37 95  1  0  0  0  0
 38 96  1  0  0  0  0
 38 97  1  0  0  0  0
 39 98  1  0  0  0  0
 39 99  1  0  0  0  0
 40100  1  0  0  0  0
 40101  1  0  0  0  0
 41102  1  0  0  0  0
 41103  1  0  0  0  0
 41104  1  0  0  0  0
 42105  1  0  0  0  0
 43106  1  0  0  0  0
 45107  1  0  0  0  0
 46108  1  0  0  0  0
 47109  1  0  0  0  0
 47110  1  0  0  0  0
 48111  1  0  0  0  0
 48112  1  0  0  0  0
M  END
> <OPENEYE_ISO_SMILES>
CCCC[C@@H]([C@H](C(=O)NC1CC1)O)NC(=O)[C@@H]2[C@@H]3[C@@H](C3(C)C)CN2C(=O)[C@H](C(C)(C)C)NC(=O)NC4(CCCCC4)CS(=O)(=O)C(C)(C)C

> <OPENEYE_INCHI>
InChI=1S/C36H63N5O7S/c1-10-11-15-24(27(42)30(44)37-22-16-17-22)38-29(43)26-25-23(35(25,8)9)20-41(26)31(45)28(33(2,3)4)39-32(46)40-36(18-13-12-14-19-36)21-49(47,48)34(5,6)7/h22-28,42H,10-21H2,1-9H3,(H,37,44)(H,38,43)(H2,39,40,46)/t23-,24-,25-,26-,27+,28+/m0/s1

> <OPENEYE_INCHIKEY>
BZXRATSZUNDEEV-FZFXNXQRSA-N

> <FORMULA>
C36H63N5O7S

$$$$
