FUL
  -OEChem-02242320023D

 23 23  0     1  0  0  0  0  0999 V2000
   -0.7080    1.2460   -0.2190 C   0  0  2  0  0  0  0  0  0  0  0  0
   -1.2140   -0.1420    0.1790 C   0  0  1  0  0  0  0  0  0  0  0  0
   -2.5820   -0.2820   -0.2080 O   0  0  0  0  0  0  0  0  0  0  0  0
   -0.3670   -1.2040   -0.5310 C   0  0  2  0  0  0  0  0  0  0  0  0
   -0.7290   -2.5030   -0.0560 O   0  0  0  0  0  0  0  0  0  0  0  0
    1.1110   -0.9350   -0.2260 C   0  0  2  0  0  0  0  0  0  0  0  0
    1.3580   -1.1460    1.1660 O   0  0  0  0  0  0  0  0  0  0  0  0
    1.4410    0.5130   -0.5940 C   0  0  2  0  0  0  0  0  0  0  0  0
    2.9230    0.7810   -0.3270 C   0  0  0  0  0  0  0  0  0  0  0  0
    0.6490    1.4020    0.1900 O   0  0  0  0  0  0  0  0  0  0  0  0
   -1.5130    2.2430    0.4150 O   0  0  0  0  0  0  0  0  0  0  0  0
   -0.7760    1.3600   -1.3010 H   0  0  0  0  0  0  0  0  0  0  0  0
   -1.1260   -0.2670    1.2580 H   0  0  0  0  0  0  0  0  0  0  0  0
   -3.0760    0.4080    0.2550 H   0  0  0  0  0  0  0  0  0  0  0  0
   -0.5350   -1.1480   -1.6060 H   0  0  0  0  0  0  0  0  0  0  0  0
   -1.6670   -2.6220   -0.2580 H   0  0  0  0  0  0  0  0  0  0  0  0
    1.7340   -1.6110   -0.8130 H   0  0  0  0  0  0  0  0  0  0  0  0
    2.2970   -0.9670    1.3140 H   0  0  0  0  0  0  0  0  0  0  0  0
    1.2290    0.6750   -1.6510 H   0  0  0  0  0  0  0  0  0  0  0  0
    3.1370    0.6190    0.7300 H   0  0  0  0  0  0  0  0  0  0  0  0
    3.5300    0.1030   -0.9280 H   0  0  0  0  0  0  0  0  0  0  0  0
    3.1600    1.8120   -0.5910 H   0  0  0  0  0  0  0  0  0  0  0  0
   -1.1660    3.1010    0.1350 H   0  0  0  0  0  0  0  0  0  0  0  0
  1  2  1  0  0  0  0
  1 10  1  0  0  0  0
  1 11  1  0  0  0  0
  1 12  1  0  0  0  0
  2  3  1  0  0  0  0
  2  4  1  0  0  0  0
  2 13  1  0  0  0  0
  3 14  1  0  0  0  0
  4  5  1  0  0  0  0
  4  6  1  0  0  0  0
  4 15  1  0  0  0  0
  5 16  1  0  0  0  0
  6  7  1  0  0  0  0
  6  8  1  0  0  0  0
  6 17  1  0  0  0  0
  7 18  1  0  0  0  0
  8  9  1  0  0  0  0
  8 10  1  0  0  0  0
  8 19  1  0  0  0  0
  9 20  1  0  0  0  0
  9 21  1  0  0  0  0
  9 22  1  0  0  0  0
 11 23  1  0  0  0  0
M  END
> <OPENEYE_ISO_SMILES>
C[C@H]1[C@H]([C@H]([C@@H]([C@H](O1)O)O)O)O

> <OPENEYE_INCHI>
InChI=1S/C6H12O5/c1-2-3(7)4(8)5(9)6(10)11-2/h2-10H,1H3/t2-,3+,4+,5-,6-/m0/s1

> <OPENEYE_INCHIKEY>
SHZGCJCMOBCMKK-KGJVWPDLSA-N

> <FORMULA>
C6H12O5

$$$$
