RF0
  -OEChem-02242320043D

 41 44  0     1  0  0  0  0  0999 V2000
    0.6990    3.7710   -0.1960 C   0  0  0  0  0  0  0  0  0  0  0  0
    2.3050    2.1320    0.0010 C   0  0  0  0  0  0  0  0  0  0  0  0
    1.4910   -1.4600    0.0740 C   0  0  0  0  0  0  0  0  0  0  0  0
    2.3880   -2.5000    0.1850 C   0  0  0  0  0  0  0  0  0  0  0  0
    3.7490   -2.2430    0.2780 C   0  0  0  0  0  0  0  0  0  0  0  0
    4.2200   -0.9460    0.2610 C   0  0  0  0  0  0  0  0  0  0  0  0
   -1.8230    0.7870   -1.4790 C   0  0  0  0  0  0  0  0  0  0  0  0
   -4.9010   -1.1430    2.1210 C   0  0  0  0  0  0  0  0  0  0  0  0
   -3.0580   -0.2550    0.8720 C   0  0  1  0  0  0  0  0  0  0  0  0
   -1.9670    0.8170    0.9360 C   0  0  0  0  0  0  0  0  0  0  0  0
   -0.0390    1.5860   -0.1700 C   0  0  0  0  0  0  0  0  0  0  0  0
    1.2910    1.1640   -0.0510 C   0  0  0  0  0  0  0  0  0  0  0  0
    1.9530   -0.1460    0.0540 C   0  0  0  0  0  0  0  0  0  0  0  0
    3.3290    0.1170    0.1480 C   0  0  0  0  0  0  0  0  0  0  0  0
   -2.9160   -0.2840   -1.5190 C   0  0  1  0  0  0  0  0  0  0  0  0
   -2.2710   -1.6720   -1.5140 C   0  0  0  0  0  0  0  0  0  0  0  0
    4.6190   -3.2700    0.3870 F   0  0  0  0  0  0  0  0  0  0  0  0
   -1.0720    0.6680   -0.2210 N   0  0  2  0  0  0  0  0  0  0  0  0
    3.5120    1.4890    0.1280 N   0  0  0  0  0  0  0  0  0  0  0  0
    1.9600    3.4170   -0.0750 N   0  0  0  0  0  0  0  0  0  0  0  0
   -0.2850    2.8920   -0.2440 N   0  0  0  0  0  0  0  0  0  0  0  0
   -3.9740   -0.0690    1.9530 O   0  0  0  0  0  0  0  0  0  0  0  0
   -3.7570   -0.1430   -0.3710 O   0  0  0  0  0  0  0  0  0  0  0  0
   -3.2840   -2.6680   -1.6680 O   0  0  0  0  0  0  0  0  0  0  0  0
    0.4580    4.8220   -0.2550 H   0  0  0  0  0  0  0  0  0  0  0  0
    0.4330   -1.6630    0.0010 H   0  0  0  0  0  0  0  0  0  0  0  0
    2.0300   -3.5190    0.2010 H   0  0  0  0  0  0  0  0  0  0  0  0
    5.2800   -0.7550    0.3330 H   0  0  0  0  0  0  0  0  0  0  0  0
   -1.1460    0.6480   -2.3220 H   0  0  0  0  0  0  0  0  0  0  0  0
   -2.2790    1.7760   -1.5380 H   0  0  0  0  0  0  0  0  0  0  0  0
   -5.5600   -0.9260    2.9610 H   0  0  0  0  0  0  0  0  0  0  0  0
   -5.4940   -1.2570    1.2140 H   0  0  0  0  0  0  0  0  0  0  0  0
   -4.3550   -2.0660    2.3170 H   0  0  0  0  0  0  0  0  0  0  0  0
   -2.6030   -1.2430    0.9460 H   0  0  0  0  0  0  0  0  0  0  0  0
   -2.4260    1.8050    0.9160 H   0  0  0  0  0  0  0  0  0  0  0  0
   -1.3950    0.6990    1.8560 H   0  0  0  0  0  0  0  0  0  0  0  0
   -3.5110   -0.1630   -2.4240 H   0  0  0  0  0  0  0  0  0  0  0  0
   -1.5610   -1.7450   -2.3370 H   0  0  0  0  0  0  0  0  0  0  0  0
   -1.7500   -1.8270   -0.5690 H   0  0  0  0  0  0  0  0  0  0  0  0
    4.3720    1.9340    0.1850 H   0  0  0  0  0  0  0  0  0  0  0  0
   -2.9470   -3.5740   -1.6740 H   0  0  0  0  0  0  0  0  0  0  0  0
 16 24  1  0  0  0  0
  9 23  1  0  0  0  0
 15 23  1  0  0  0  0
  8 22  1  0  0  0  0
  9 22  1  0  0  0  0
 15 16  1  0  0  0  0
  9 10  1  0  0  0  0
  7 15  1  0  0  0  0
 10 18  1  0  0  0  0
  7 18  1  0  0  0  0
 11 18  1  0  0  0  0
  3  4  2  0  0  0  0
  3 13  1  0  0  0  0
  4  5  1  0  0  0  0
 11 21  2  0  0  0  0
 11 12  1  0  0  0  0
 12 13  1  0  0  0  0
 13 14  2  0  0  0  0
  1 21  1  0  0  0  0
  5 17  1  0  0  0  0
  5  6  2  0  0  0  0
  2 12  2  0  0  0  0
  6 14  1  0  0  0  0
 14 19  1  0  0  0  0
  1 20  2  0  0  0  0
  2 19  1  0  0  0  0
  2 20  1  0  0  0  0
  1 25  1  0  0  0  0
  3 26  1  0  0  0  0
  4 27  1  0  0  0  0
  6 28  1  0  0  0  0
  7 29  1  0  0  0  0
  7 30  1  0  0  0  0
  8 31  1  0  0  0  0
  8 32  1  0  0  0  0
  8 33  1  0  0  0  0
  9 34  1  0  0  0  0
 10 35  1  0  0  0  0
 10 36  1  0  0  0  0
 15 37  1  0  0  0  0
 16 38  1  0  0  0  0
 16 39  1  0  0  0  0
 19 40  1  0  0  0  0
 24 41  1  0  0  0  0
M  END
> <OPENEYE_ISO_SMILES>
CO[C@@H]1C[N@@](C[C@H](O1)CO)c2c3c4ccc(cc4[nH]c3ncn2)F

> <OPENEYE_INCHI>
InChI=1S/C16H17FN4O3/c1-23-13-6-21(5-10(7-22)24-13)16-14-11-3-2-9(17)4-12(11)20-15(14)18-8-19-16/h2-4,8,10,13,22H,5-7H2,1H3,(H,18,19,20)/t10-,13-/m0/s1

> <OPENEYE_INCHIKEY>
BXWPLXGLKXAQCW-GWCFXTLKSA-N

> <FORMULA>
C16H17FN4O3

$$$$
