@<TRIPOS>MOLECULE
/home/pku/3cl/gett_pdb/5SQ7/5SQ7_mol2/ligand/5SQ7_QM6.pdb
 47 50 0 0 0
SMALL
GASTEIGER

@<TRIPOS>ATOM
      1  C18      -47.6000  -28.5540    2.1400 C.ar  201  QM6201     -0.0479
      2  C17      -46.2740  -28.7420    2.4780 C.ar  201  QM6201      0.0368
      3  C15      -45.1220  -28.5640    1.4870 C.2   201  QM6201      0.2443
      4  C13      -42.7290  -29.0280    0.9030 C.3   201  QM6201      0.0414
      5  C12      -42.0450  -30.2810    0.3120 C.ar  201  QM6201      0.0243
      6  C11      -41.1950  -30.2410   -0.8670 C.ar  201  QM6201      0.0255
      7  C10      -40.7580  -29.2270   -1.7420 C.ar  201  QM6201     -0.0507
      8  C20      -48.2110  -28.9960    4.4160 C.ar  201  QM6201      0.0348
      9  C19      -48.5700  -28.6730    3.1260 C.ar  201  QM6201     -0.0397
     10  C02      -42.7970  -32.2390    1.9200 C.2   201  QM6201      0.1073
     11  C04      -42.0690  -31.6270    0.7140 C.ar  201  QM6201      0.1560
     12  C06      -40.7910  -31.5540   -1.0510 C.ar  201  QM6201      0.1361
     13  C07      -39.9430  -31.8690   -2.1230 C.ar  201  QM6201     -0.0187
     14  C08      -39.5050  -30.8770   -2.9980 C.ar  201  QM6201     -0.0582
     15  C09      -39.9130  -29.5530   -2.8090 C.ar  201  QM6201     -0.0610
     16  C22      -50.6020  -29.1680    5.3420 C.2   201  QM6201      0.3041
     17  C25      -52.7890  -29.3310    6.6430 C.3   201  QM6201      0.0247
     18  C26      -53.5420  -30.6260    6.4190 C.3   201  QM6201     -0.0328
     19  C27      -53.3090  -30.1130    7.8440 C.3   201  QM6201     -0.0328
     20  C28      -46.8910  -29.1580    4.7550 C.ar  201  QM6201     -0.0397
     21  C29      -45.9240  -29.0230    3.7820 C.ar  201  QM6201     -0.0479
     22  N14      -43.8650  -29.2480    1.7960 N.am  201  QM6201     -0.3071
     23  N21      -49.1620  -29.1400    5.5010 N.am  201  QM6201     -0.2695
     24  N24      -51.3310  -29.3260    6.5910 N.am  201  QM6201     -0.2963
     25  O01      -43.0080  -31.5260    2.9440 O.co2 201  QM6201     -0.5416
     26  O03      -43.1170  -33.4680    1.8940 O.co2 201  QM6201     -0.5416
     27  O05      -41.3220  -32.3230   -0.1060 O.2   201  QM6201     -0.4533
     28  O16      -45.2310  -27.8160    0.5590 O.2   201  QM6201     -0.2702
     29  O23      -51.1450  -29.0770    4.2890 O.2   201  QM6201     -0.2525
     30 H181      -47.9070  -28.3390    1.1200 H     201  QM6201      0.0626
     31 H132      -43.0840  -28.4160    0.0800 H     201  QM6201      0.0513
     32 H131      -41.9890  -28.4480    1.4530 H     201  QM6201      0.0513
     33 H101      -41.0710  -28.1910   -1.5990 H     201  QM6201      0.0625
     34 H191      -49.6350  -28.5910    2.8620 H     201  QM6201      0.0636
     35 H071      -39.6330  -32.8980   -2.2640 H     201  QM6201      0.0654
     36 H081      -38.8500  -31.1410   -3.8270 H     201  QM6201      0.0619
     37 H091      -39.5680  -28.7860   -3.4970 H     201  QM6201      0.0618
     38 H251      -53.3450  -28.4550    6.3620 H     201  QM6201      0.0499
     39 H261      -52.8630  -31.3850    6.0760 H     201  QM6201      0.0284
     40 H262      -54.5730  -30.5630    6.0300 H     201  QM6201      0.0284
     41 H271      -52.5500  -30.6460    8.4150 H     201  QM6201      0.0284
     42 H272      -54.1700  -29.6780    8.3400 H     201  QM6201      0.0284
     43 H281      -46.6180  -29.3960    5.7780 H     201  QM6201      0.0636
     44 H291      -44.8820  -29.1440    4.0380 H     201  QM6201      0.0626
     45 H141      -43.7890  -29.8270    2.6120 H     201  QM6201      0.1493
     46 H211      -48.8050  -29.2340    6.4260 H     201  QM6201      0.1564
     47 H241      -50.8270  -29.3980    7.4470 H     201  QM6201      0.1505
@<TRIPOS>UNITY_ATOM_ATTR
25 1
charge -1
@<TRIPOS>BOND
     1    36    14    1
     2    37    15    1
     3    14    15   ar
     4    14    13   ar
     5    15     7   ar
     6    35    13    1
     7    13    12   ar
     8     7    33    1
     9     7     6   ar
    10    12     6   ar
    11    12    27   ar
    12     6     5   ar
    13    27    11   ar
    14    31     4    1
    15     5    11   ar
    16     5     4    1
    17    28     3    2
    18    11    10    1
    19     4    32    1
    20     4    22    1
    21    30     1    1
    22     3    22   am
    23     3     2    1
    24    22    45    1
    25    26    10   ar
    26    10    25   ar
    27     1     2   ar
    28     1     9   ar
    29     2    21   ar
    30    34     9    1
    31     9     8   ar
    32    21    44    1
    33    21    20   ar
    34    29    16    2
    35     8    20   ar
    36     8    23    1
    37    20    43    1
    38    16    23   am
    39    16    24   am
    40    23    46    1
    41    40    18    1
    42    39    18    1
    43    38    17    1
    44    18    17    1
    45    18    19    1
    46    24    17    1
    47    24    47    1
    48    17    19    1
    49    19    42    1
    50    19    41    1
