BTB
  -OEChem-02242320023D

 33 32  0     0  0  0  0  0  0999 V2000
    1.5150   -0.5000    0.9980 C   0  0  0  0  0  0  0  0  0  0  0  0
    2.4270    0.1280    0.0950 O   0  0  0  0  0  0  0  0  0  0  0  0
    0.1510   -0.6530    0.3210 C   0  0  0  0  0  0  0  0  0  0  0  0
   -0.8310   -1.3040    1.2960 C   0  0  0  0  0  0  0  0  0  0  0  0
   -2.0520   -1.5990    0.6150 O   0  0  0  0  0  0  0  0  0  0  0  0
    0.2960   -1.5340   -0.9210 C   0  0  0  0  0  0  0  0  0  0  0  0
    1.1580   -0.8920   -1.8630 O   0  0  0  0  0  0  0  0  0  0  0  0
   -0.3510    0.6690   -0.0710 N   0  0  0  0  0  0  0  0  0  0  0  0
    0.0920    1.6130    0.9610 C   0  0  0  0  0  0  0  0  0  0  0  0
   -0.7200    1.3910    2.2390 C   0  0  0  0  0  0  0  0  0  0  0  0
   -0.1050    0.3660    3.0220 O   0  0  0  0  0  0  0  0  0  0  0  0
    0.3490    1.0370   -1.3090 C   0  0  0  0  0  0  0  0  0  0  0  0
   -0.3570    0.3960   -2.5050 C   0  0  0  0  0  0  0  0  0  0  0  0
   -1.5620    1.1120   -2.7860 O   0  0  0  0  0  0  0  0  0  0  0  0
    1.4090    0.1130    1.8930 H   0  0  0  0  0  0  0  0  0  0  0  0
    1.8960   -1.4830    1.2740 H   0  0  0  0  0  0  0  0  0  0  0  0
    3.2710    0.2060    0.5600 H   0  0  0  0  0  0  0  0  0  0  0  0
   -0.4000   -2.2270    1.6840 H   0  0  0  0  0  0  0  0  0  0  0  0
   -1.0310   -0.6210    2.1210 H   0  0  0  0  0  0  0  0  0  0  0  0
   -2.6430   -2.0070    1.2630 H   0  0  0  0  0  0  0  0  0  0  0  0
    0.7200   -2.4970   -0.6370 H   0  0  0  0  0  0  0  0  0  0  0  0
   -0.6830   -1.6880   -1.3730 H   0  0  0  0  0  0  0  0  0  0  0  0
    1.1610   -1.4410   -2.6590 H   0  0  0  0  0  0  0  0  0  0  0  0
   -0.0570    2.6340    0.6090 H   0  0  0  0  0  0  0  0  0  0  0  0
    1.1490    1.4520    1.1710 H   0  0  0  0  0  0  0  0  0  0  0  0
   -1.7340    1.0880    1.9760 H   0  0  0  0  0  0  0  0  0  0  0  0
   -0.7540    2.3160    2.8130 H   0  0  0  0  0  0  0  0  0  0  0  0
   -0.5990    0.3140    3.8510 H   0  0  0  0  0  0  0  0  0  0  0  0
    0.3430    2.1210   -1.4210 H   0  0  0  0  0  0  0  0  0  0  0  0
    1.3780    0.6820   -1.2620 H   0  0  0  0  0  0  0  0  0  0  0  0
    0.2970    0.4320   -3.3760 H   0  0  0  0  0  0  0  0  0  0  0  0
   -0.5970   -0.6400   -2.2730 H   0  0  0  0  0  0  0  0  0  0  0  0
   -1.9750    0.6770   -3.5440 H   0  0  0  0  0  0  0  0  0  0  0  0
  1  2  1  0  0  0  0
  1  3  1  0  0  0  0
  1 15  1  0  0  0  0
  1 16  1  0  0  0  0
  2 17  1  0  0  0  0
  3  4  1  0  0  0  0
  3  6  1  0  0  0  0
  3  8  1  0  0  0  0
  4  5  1  0  0  0  0
  4 18  1  0  0  0  0
  4 19  1  0  0  0  0
  5 20  1  0  0  0  0
  6  7  1  0  0  0  0
  6 21  1  0  0  0  0
  6 22  1  0  0  0  0
  7 23  1  0  0  0  0
  8  9  1  0  0  0  0
  8 12  1  0  0  0  0
  9 10  1  0  0  0  0
  9 24  1  0  0  0  0
  9 25  1  0  0  0  0
 10 11  1  0  0  0  0
 10 26  1  0  0  0  0
 10 27  1  0  0  0  0
 11 28  1  0  0  0  0
 12 13  1  0  0  0  0
 12 29  1  0  0  0  0
 12 30  1  0  0  0  0
 13 14  1  0  0  0  0
 13 31  1  0  0  0  0
 13 32  1  0  0  0  0
 14 33  1  0  0  0  0
M  END
> <OPENEYE_ISO_SMILES>
C(CO)N(CCO)C(CO)(CO)CO

> <OPENEYE_INCHI>
InChI=1S/C8H19NO5/c10-3-1-9(2-4-11)8(5-12,6-13)7-14/h10-14H,1-7H2

> <OPENEYE_INCHIKEY>
OWMVSZAMULFTJU-UHFFFAOYSA-N

> <FORMULA>
C8H19NO5

$$$$
