@<TRIPOS>MOLECULE
/home/pku/3cl/gett_pdb/6VH3/6VH3_mol2/ligand/6VH3_QYS.pdb
 31 32 0 0 0
SMALL
GASTEIGER

@<TRIPOS>ATOM
      1  C02       62.5080  -17.4870   -5.2020 C.3   401  QYS401      0.2639
      2  C04       63.4130  -16.2310   -4.9110 C.3   401  QYS401      0.0667
      3  C05       64.0570  -15.6740   -6.1670 C.3   401  QYS401      0.0093
      4  C06       63.0470  -15.5440   -7.3240 C.3   401  QYS401      0.0443
      5  C07       63.6150  -14.7570   -8.5110 C.3   401  QYS401      0.2100
      6  C09       62.8720  -12.3910   -8.7130 C.2   401  QYS401      0.4215
      7  C11       63.9750  -10.2180   -8.6910 C.3   401  QYS401      0.1761
      8  C12       65.3230   -9.5940   -8.9620 C.3   401  QYS401      0.0312
      9  C13       66.4520   -9.9690   -7.9550 C.3   401  QYS401      0.0022
     10  C14       67.6800   -9.0910   -8.1280 C.3   401  QYS401      0.0001
     11  C15       65.9630   -9.9080   -6.5260 C.3   401  QYS401      0.0001
     12  C16       62.9210   -9.6210   -9.7400 C.2   401  QYS401      0.2614
     13  C18       61.1860   -7.9590  -10.4410 C.3   401  QYS401      0.1287
     14  C19       59.6720   -8.1800  -10.0450 C.3   401  QYS401      0.0335
     15  C20       59.3160   -9.6870  -10.1040 C.3   401  QYS401      0.0818
     16  C21       57.9730  -10.0380   -9.5200 C.2   401  QYS401      0.2410
     17  C23       58.1200  -11.3300  -11.5200 C.3   401  QYS401      0.1156
     18  C24       59.2780  -10.3050  -11.5180 C.3   401  QYS401      0.0326
     19  C26       61.5920   -6.4230  -10.5540 C.3   401  QYS401      0.2036
     20  C30       62.5850  -16.9500   -7.6620 C.3   401  QYS401      0.0093
     21  C31       61.7270  -17.4810   -6.5540 C.3   401  QYS401      0.0667
     22  F01       63.2520  -18.5680   -5.1820 F     401  QYS401     -0.2043
     23  F03       61.6890  -17.7370   -4.1720 F     401  QYS401     -0.2043
     24  N10       64.0530  -11.6780   -8.7450 N.am  401  QYS401     -0.1611
     25  N17       62.1170   -8.5330   -9.4950 N.am  401  QYS401     -0.2030
     26  N22       57.3230  -10.9330  -10.2840 N.am  401  QYS401     -0.2054
     27  O08       62.7310  -13.7420   -9.0300 O.3   401  QYS401     -0.4335
     28  O25       57.6250   -9.5290   -8.4410 O.2   401  QYS401     -0.2734
     29  O27       60.6560   -5.8190  -11.3960 O.3   401  QYS401     -0.2185
     30  O28       62.8080  -10.1930  -10.8120 O.2   401  QYS401     -0.2715
     31  O29       61.8590  -11.7850   -8.4360 O.2   401  QYS401     -0.2246
@<TRIPOS>BOND
     1    17    18    1
     2    17    26    1
     3    18    15    1
     4    29    19    1
     5    30    12    2
     6    19    13    1
     7    13    14    1
     8    13    25    1
     9    26    16   am
    10    15    14    1
    11    15    16    1
    12    12    25   am
    13    12     7    1
    14    16    28    2
    15    27     6    1
    16    27     5    1
    17     8     7    1
    18     8     9    1
    19    24     6   am
    20    24     7    1
    21     6    31    2
    22     5     4    1
    23    10     9    1
    24     9    11    1
    25    20     4    1
    26    20    21    1
    27     4     3    1
    28    21     1    1
    29     3     2    1
    30     1    22    1
    31     1     2    1
    32     1    23    1
