W6A
  -OEChem-02242320043D

 19 20  0     0  0  0  0  0  0999 V2000
    2.4450    2.0530   -0.0030 C   0  0  0  0  0  0  0  0  0  0  0  0
   -3.0590   -0.4080   -0.0000 C   0  0  0  0  0  0  0  0  0  0  0  0
   -1.6550    0.0220   -0.0010 C   0  0  0  0  0  0  0  0  0  0  0  0
   -0.5770   -0.8060   -0.0080 C   0  0  0  0  0  0  0  0  0  0  0  0
    0.5860   -0.0000   -0.0070 C   0  0  0  0  0  0  0  0  0  0  0  0
    1.9580   -0.2900   -0.0020 C   0  0  0  0  0  0  0  0  0  0  0  0
    2.8670    0.7300   -0.0050 C   0  0  0  0  0  0  0  0  0  0  0  0
    1.1030    2.3630    0.0020 C   0  0  0  0  0  0  0  0  0  0  0  0
    0.1570    1.3420    0.0000 C   0  0  0  0  0  0  0  0  0  0  0  0
   -1.2180    1.3330    0.0040 N   0  0  0  0  0  0  0  0  0  0  0  0
   -3.3320   -1.5920   -0.0060 O   0  0  0  0  0  0  0  0  0  0  0  0
   -4.0460    0.5120    0.0070 O   0  0  0  0  0  0  0  0  0  0  0  0
    2.5000   -1.9390    0.0060 Cl  0  0  0  0  0  0  0  0  0  0  0  0
    3.1770    2.8480   -0.0010 H   0  0  0  0  0  0  0  0  0  0  0  0
   -0.6030   -1.8860   -0.0130 H   0  0  0  0  0  0  0  0  0  0  0  0
    3.9230    0.5060   -0.0090 H   0  0  0  0  0  0  0  0  0  0  0  0
    0.7850    3.3950    0.0090 H   0  0  0  0  0  0  0  0  0  0  0  0
   -1.7870    2.1190    0.0090 H   0  0  0  0  0  0  0  0  0  0  0  0
   -4.9540    0.1810    0.0070 H   0  0  0  0  0  0  0  0  0  0  0  0
  1  7  2  0  0  0  0
  6  7  1  0  0  0  0
  1  8  1  0  0  0  0
  6 13  1  0  0  0  0
  8  9  2  0  0  0  0
  5  6  2  0  0  0  0
  5  9  1  0  0  0  0
  9 10  1  0  0  0  0
  4  5  1  0  0  0  0
  3 10  1  0  0  0  0
  3  4  2  0  0  0  0
  2  3  1  0  0  0  0
  2 11  2  0  0  0  0
  2 12  1  0  0  0  0
  1 14  1  0  0  0  0
  4 15  1  0  0  0  0
  7 16  1  0  0  0  0
  8 17  1  0  0  0  0
 10 18  1  0  0  0  0
 12 19  1  0  0  0  0
M  END
> <OPENEYE_ISO_SMILES>
c1cc2c(cc([nH]2)C(=O)O)c(c1)Cl

> <OPENEYE_INCHI>
InChI=1S/C9H6ClNO2/c10-6-2-1-3-7-5(6)4-8(11-7)9(12)13/h1-4,11H,(H,12,13)

> <OPENEYE_INCHIKEY>
VXZHQADIRFFCMJ-UHFFFAOYSA-N

> <FORMULA>
C9H6ClNO2

$$$$
