BMA
  -OEChem-02242320023D

 24 24  0     1  0  0  0  0  0999 V2000
   -1.4420   -0.5780   -0.5040 C   0  0  2  0  0  0  0  0  0  0  0  0
   -0.4930   -0.1940   -1.6420 C   0  0  2  0  0  0  0  0  0  0  0  0
    0.9450   -0.5150   -1.2230 C   0  0  2  0  0  0  0  0  0  0  0  0
    1.2270    0.1680    0.1190 C   0  0  1  0  0  0  0  0  0  0  0  0
    0.1490   -0.2440    1.1240 C   0  0  1  0  0  0  0  0  0  0  0  0
    0.4420    0.4050    2.4780 C   0  0  0  0  0  0  0  0  0  0  0  0
   -2.7890   -0.3110   -0.8990 O   0  0  0  0  0  0  0  0  0  0  0  0
   -0.6140    1.2020   -1.9150 O   0  0  0  0  0  0  0  0  0  0  0  0
    1.8530   -0.0270   -2.2130 O   0  0  0  0  0  0  0  0  0  0  0  0
    2.5100   -0.2350    0.6010 O   0  0  0  0  0  0  0  0  0  0  0  0
   -1.1300    0.1810    0.6610 O   0  0  0  0  0  0  0  0  0  0  0  0
   -0.5610    0.0180    3.4190 O   0  0  0  0  0  0  0  0  0  0  0  0
   -1.3330   -1.6400   -0.2840 H   0  0  0  0  0  0  0  0  0  0  0  0
   -0.7480   -0.7630   -2.5370 H   0  0  0  0  0  0  0  0  0  0  0  0
    1.0630   -1.5930   -1.1180 H   0  0  0  0  0  0  0  0  0  0  0  0
    1.2110    1.2500   -0.0110 H   0  0  0  0  0  0  0  0  0  0  0  0
    0.1520   -1.3280    1.2340 H   0  0  0  0  0  0  0  0  0  0  0  0
    0.4390    1.4890    2.3690 H   0  0  0  0  0  0  0  0  0  0  0  0
    1.4180    0.0780    2.8350 H   0  0  0  0  0  0  0  0  0  0  0  0
   -3.3540   -0.5700   -0.1590 H   0  0  0  0  0  0  0  0  0  0  0  0
   -1.5340    1.3600   -2.1670 H   0  0  0  0  0  0  0  0  0  0  0  0
    1.6300   -0.4740   -3.0410 H   0  0  0  0  0  0  0  0  0  0  0  0
    3.1570    0.0350   -0.0640 H   0  0  0  0  0  0  0  0  0  0  0  0
   -0.3400    0.4470    4.2560 H   0  0  0  0  0  0  0  0  0  0  0  0
  1  2  1  0  0  0  0
  1  7  1  0  0  0  0
  1 11  1  0  0  0  0
  1 13  1  0  0  0  0
  2  3  1  0  0  0  0
  2  8  1  0  0  0  0
  2 14  1  0  0  0  0
  3  4  1  0  0  0  0
  3  9  1  0  0  0  0
  3 15  1  0  0  0  0
  4  5  1  0  0  0  0
  4 10  1  0  0  0  0
  4 16  1  0  0  0  0
  5  6  1  0  0  0  0
  5 11  1  0  0  0  0
  5 17  1  0  0  0  0
  6 12  1  0  0  0  0
  6 18  1  0  0  0  0
  6 19  1  0  0  0  0
  7 20  1  0  0  0  0
  8 21  1  0  0  0  0
  9 22  1  0  0  0  0
 10 23  1  0  0  0  0
 12 24  1  0  0  0  0
M  END
> <OPENEYE_ISO_SMILES>
C([C@@H]1[C@H]([C@@H]([C@@H]([C@@H](O1)O)O)O)O)O

> <OPENEYE_INCHI>
InChI=1S/C6H12O6/c7-1-2-3(8)4(9)5(10)6(11)12-2/h2-11H,1H2/t2-,3-,4+,5+,6-/m1/s1

> <OPENEYE_INCHIKEY>
WQZGKKKJIJFFOK-RWOPYEJCSA-N

> <FORMULA>
C6H12O6

$$$$
