W17
  -OEChem-02242320043D

 20 20  0     0  0  0  0  0  0999 V2000
   -0.4730    1.3550   -0.2500 N   0  0  0  0  0  0  0  0  0  0  0  0
   -3.1400    0.0930    0.5160 C   0  0  0  0  0  0  0  0  0  0  0  0
    0.2350   -0.7540   -0.2440 C   0  0  0  0  0  0  0  0  0  0  0  0
    3.0180   -1.4970    0.1130 O   0  0  0  0  0  0  0  0  0  0  0  0
    2.7200   -0.3180    0.1230 C   0  0  0  0  0  0  0  0  0  0  0  0
    3.6740    0.6170    0.2980 N   0  0  0  0  0  0  0  0  0  0  0  0
    1.3140    0.0870   -0.0560 C   0  0  0  0  0  0  0  0  0  0  0  0
   -0.8590    0.0150   -0.3630 N   0  0  0  0  0  0  0  0  0  0  0  0
    0.8170    1.4100   -0.0670 C   0  0  0  0  0  0  0  0  0  0  0  0
   -2.2250   -0.4680   -0.5760 C   0  0  0  0  0  0  0  0  0  0  0  0
   -4.4730   -0.3780    0.3090 O   0  0  0  0  0  0  0  0  0  0  0  0
   -2.7850   -0.2370    1.4920 H   0  0  0  0  0  0  0  0  0  0  0  0
   -3.1290    1.1820    0.4740 H   0  0  0  0  0  0  0  0  0  0  0  0
    0.2670   -1.8330   -0.2870 H   0  0  0  0  0  0  0  0  0  0  0  0
    4.5990    0.3500    0.4150 H   0  0  0  0  0  0  0  0  0  0  0  0
    3.4350    1.5580    0.3060 H   0  0  0  0  0  0  0  0  0  0  0  0
    1.4030    2.3090    0.0540 H   0  0  0  0  0  0  0  0  0  0  0  0
   -2.2360   -1.5580   -0.5340 H   0  0  0  0  0  0  0  0  0  0  0  0
   -2.5800   -0.1380   -1.5520 H   0  0  0  0  0  0  0  0  0  0  0  0
   -5.1080   -0.0620    0.9650 H   0  0  0  0  0  0  0  0  0  0  0  0
  1  9  2  0  0  0  0
  7  9  1  0  0  0  0
  4  5  2  0  0  0  0
  1  8  1  0  0  0  0
  5  7  1  0  0  0  0
  3  7  2  0  0  0  0
  5  6  1  0  0  0  0
  3  8  1  0  0  0  0
  8 10  1  0  0  0  0
  2 10  1  0  0  0  0
  2 11  1  0  0  0  0
  2 12  1  0  0  0  0
  2 13  1  0  0  0  0
  3 14  1  0  0  0  0
  6 15  1  0  0  0  0
  6 16  1  0  0  0  0
  9 17  1  0  0  0  0
 10 18  1  0  0  0  0
 10 19  1  0  0  0  0
 11 20  1  0  0  0  0
M  END
> <OPENEYE_ISO_SMILES>
c1c(cn(n1)CCO)C(=O)N

> <OPENEYE_INCHI>
InChI=1S/C6H9N3O2/c7-6(11)5-3-8-9(4-5)1-2-10/h3-4,10H,1-2H2,(H2,7,11)

> <OPENEYE_INCHIKEY>
LHYHSUSQLBMWFV-UHFFFAOYSA-N

> <FORMULA>
C6H9N3O2

$$$$
