K36
  -OEChem-02242320033D

 64 65  0     1  0  0  0  0  0999 V2000
    5.3190    0.3390   -0.8150 C   0  0  0  0  0  0  0  0  0  0  0  0
    4.2100   -0.1680   -0.0270 O   0  0  0  0  0  0  0  0  0  0  0  0
    2.9870   -0.1160   -0.5880 C   0  0  0  0  0  0  0  0  0  0  0  0
    2.8500    0.3420   -1.7050 O   0  0  0  0  0  0  0  0  0  0  0  0
    6.5980    0.1990   -0.0300 C   0  0  0  0  0  0  0  0  0  0  0  0
    7.3520   -0.9550   -0.1370 C   0  0  0  0  0  0  0  0  0  0  0  0
    8.5250   -1.0830    0.5820 C   0  0  0  0  0  0  0  0  0  0  0  0
    8.9450   -0.0580    1.4090 C   0  0  0  0  0  0  0  0  0  0  0  0
    8.1910    1.0970    1.5150 C   0  0  0  0  0  0  0  0  0  0  0  0
    7.0200    1.2270    0.7920 C   0  0  0  0  0  0  0  0  0  0  0  0
    1.9140   -0.5700    0.0900 N   0  0  0  0  0  0  0  0  0  0  0  0
    0.5710   -0.4130   -0.4730 C   0  0  2  0  0  0  0  0  0  0  0  0
   -0.4330   -0.3060    0.6450 C   0  0  0  0  0  0  0  0  0  0  0  0
   -0.1120   -0.5940    1.7790 O   0  0  0  0  0  0  0  0  0  0  0  0
    0.2380   -1.6270   -1.3430 C   0  0  0  0  0  0  0  0  0  0  0  0
   -1.0660   -1.3670   -2.1020 C   0  0  0  0  0  0  0  0  0  0  0  0
   -0.8540   -0.2320   -3.1060 C   0  0  0  0  0  0  0  0  0  0  0  0
   -1.4830   -2.6370   -2.8470 C   0  0  0  0  0  0  0  0  0  0  0  0
   -1.6880    0.1110    0.3860 N   0  0  0  0  0  0  0  0  0  0  0  0
   -2.6250    0.3450    1.4880 C   0  0  2  0  0  0  0  0  0  0  0  0
   -3.2990   -0.9730    1.8740 C   0  0  1  0  0  0  0  0  0  0  0  0
   -4.2950   -0.7250    2.8680 O   0  0  0  0  0  0  0  0  0  0  0  0
   -3.6890    1.3530    1.0480 C   0  0  0  0  0  0  0  0  0  0  0  0
   -3.0290    2.7070    0.7820 C   0  0  2  0  0  0  0  0  0  0  0  0
   -4.0900    3.7530    0.3640 C   0  0  0  0  0  0  0  0  0  0  0  0
   -4.0370    3.6570   -1.1770 C   0  0  0  0  0  0  0  0  0  0  0  0
   -2.6910    3.1640   -1.4920 N   0  0  0  0  0  0  0  0  0  0  0  0
   -2.1040    2.6210   -0.4120 C   0  0  0  0  0  0  0  0  0  0  0  0
   -0.9940    2.1320   -0.3960 O   0  0  0  0  0  0  0  0  0  0  0  0
   -4.0760   -1.7060    0.4090 S   0  0  0  0  0  0  0  0  0  0  0  0
   -5.1090   -0.8620   -0.0830 O   0  0  0  0  0  0  0  0  0  0  0  0
   -3.0900   -2.2420   -0.4630 O   0  0  0  0  0  0  0  0  0  0  0  0
   -4.8110   -2.9280    0.9400 O   0  0  0  0  0  0  0  0  0  0  0  0
    5.3970   -0.2300   -1.7410 H   0  0  0  0  0  0  0  0  0  0  0  0
    5.1480    1.3900   -1.0470 H   0  0  0  0  0  0  0  0  0  0  0  0
    7.0240   -1.7560   -0.7830 H   0  0  0  0  0  0  0  0  0  0  0  0
    9.1130   -1.9850    0.4990 H   0  0  0  0  0  0  0  0  0  0  0  0
    9.8610   -0.1580    1.9710 H   0  0  0  0  0  0  0  0  0  0  0  0
    8.5190    1.8980    2.1610 H   0  0  0  0  0  0  0  0  0  0  0  0
    6.4320    2.1290    0.8750 H   0  0  0  0  0  0  0  0  0  0  0  0
    2.0320   -1.0020    0.9510 H   0  0  0  0  0  0  0  0  0  0  0  0
    0.5360    0.4910   -1.0810 H   0  0  0  0  0  0  0  0  0  0  0  0
    1.0450   -1.7960   -2.0560 H   0  0  0  0  0  0  0  0  0  0  0  0
    0.1210   -2.5060   -0.7110 H   0  0  0  0  0  0  0  0  0  0  0  0
   -1.8470   -1.0870   -1.3960 H   0  0  0  0  0  0  0  0  0  0  0  0
   -1.8020    0.0070   -3.5880 H   0  0  0  0  0  0  0  0  0  0  0  0
   -0.4800    0.6490   -2.5850 H   0  0  0  0  0  0  0  0  0  0  0  0
   -0.1310   -0.5440   -3.8590 H   0  0  0  0  0  0  0  0  0  0  0  0
   -1.6330   -3.4450   -2.1320 H   0  0  0  0  0  0  0  0  0  0  0  0
   -2.4110   -2.4520   -3.3880 H   0  0  0  0  0  0  0  0  0  0  0  0
   -0.7010   -2.9170   -3.5530 H   0  0  0  0  0  0  0  0  0  0  0  0
   -1.9720    0.2550   -0.5300 H   0  0  0  0  0  0  0  0  0  0  0  0
   -2.0830    0.7420    2.3470 H   0  0  0  0  0  0  0  0  0  0  0  0
   -2.5520   -1.6600    2.2720 H   0  0  0  0  0  0  0  0  0  0  0  0
   -4.9930   -0.1200    2.5830 H   0  0  0  0  0  0  0  0  0  0  0  0
   -4.1700    0.9980    0.1370 H   0  0  0  0  0  0  0  0  0  0  0  0
   -4.4350    1.4600    1.8350 H   0  0  0  0  0  0  0  0  0  0  0  0
   -2.4840    3.0450    1.6630 H   0  0  0  0  0  0  0  0  0  0  0  0
   -5.0760    3.4780    0.7380 H   0  0  0  0  0  0  0  0  0  0  0  0
   -3.8090    4.7500    0.7030 H   0  0  0  0  0  0  0  0  0  0  0  0
   -4.7900    2.9550   -1.5370 H   0  0  0  0  0  0  0  0  0  0  0  0
   -4.1930    4.6400   -1.6210 H   0  0  0  0  0  0  0  0  0  0  0  0
   -2.2780    3.2220   -2.3680 H   0  0  0  0  0  0  0  0  0  0  0  0
   -5.2820   -3.4300    0.2610 H   0  0  0  0  0  0  0  0  0  0  0  0
 21 22  1  0  0  0  0
 20 21  1  0  0  0  0
 20 23  1  0  0  0  0
 19 20  1  0  0  0  0
 23 24  1  0  0  0  0
 25 26  1  0  0  0  0
 24 25  1  0  0  0  0
 26 27  1  0  0  0  0
 13 14  2  0  0  0  0
 13 19  1  0  0  0  0
 24 28  1  0  0  0  0
 27 28  1  0  0  0  0
 28 29  2  0  0  0  0
 12 13  1  0  0  0  0
 12 15  1  0  0  0  0
 15 16  1  0  0  0  0
 11 12  1  0  0  0  0
 16 17  1  0  0  0  0
 16 18  1  0  0  0  0
  3 11  1  0  0  0  0
  3  4  2  0  0  0  0
  2  3  1  0  0  0  0
  1  2  1  0  0  0  0
  1 34  1  0  0  0  0
  1 35  1  0  0  0  0
 11 41  1  0  0  0  0
 12 42  1  0  0  0  0
 15 43  1  0  0  0  0
 15 44  1  0  0  0  0
 16 45  1  0  0  0  0
 17 46  1  0  0  0  0
 17 47  1  0  0  0  0
 17 48  1  0  0  0  0
 18 49  1  0  0  0  0
 18 50  1  0  0  0  0
 18 51  1  0  0  0  0
 19 52  1  0  0  0  0
 20 53  1  0  0  0  0
 21 54  1  0  0  0  0
 22 55  1  0  0  0  0
 23 56  1  0  0  0  0
 23 57  1  0  0  0  0
 24 58  1  0  0  0  0
 25 59  1  0  0  0  0
 25 60  1  0  0  0  0
 26 61  1  0  0  0  0
 26 62  1  0  0  0  0
 27 63  1  0  0  0  0
  1  5  1  0  0  0  0
  5  6  1  0  0  0  0
  6  7  2  0  0  0  0
  7  8  1  0  0  0  0
  8  9  2  0  0  0  0
  9 10  1  0  0  0  0
  5 10  2  0  0  0  0
 21 30  1  0  0  0  0
 30 31  2  0  0  0  0
 30 32  2  0  0  0  0
 30 33  1  0  0  0  0
  6 36  1  0  0  0  0
  7 37  1  0  0  0  0
  8 38  1  0  0  0  0
  9 39  1  0  0  0  0
 10 40  1  0  0  0  0
 33 64  1  0  0  0  0
M  END
> <OPENEYE_ISO_SMILES>
CC(C)C[C@@H](C(=O)N[C@@H](C[C@@H]1CCNC1=O)[C@@H](O)S(=O)(=O)O)NC(=O)OCc2ccccc2

> <OPENEYE_INCHI>
InChI=1S/C21H31N3O8S/c1-13(2)10-16(24-21(28)32-12-14-6-4-3-5-7-14)19(26)23-17(20(27)33(29,30)31)11-15-8-9-22-18(15)25/h3-7,13,15-17,20,27H,8-12H2,1-2H3,(H,22,25)(H,23,26)(H,24,28)(H,29,30,31)/t15-,16-,17-,20-/m0/s1

> <OPENEYE_INCHIKEY>
BSPZFJDYQHDZNR-BOSXTWCSSA-N

> <FORMULA>
C21H31N3O8S

$$$$
