@<TRIPOS>MOLECULE
/home/pku/3cl/gett_pdb/5SPS/5SPS_mol2/ligand/5SPS_S6N.pdb
 39 41 0 0 0
SMALL
GASTEIGER

@<TRIPOS>ATOM
      1  C17      -46.4000  -29.0970    6.1140 C.ar  201  S6N201      0.1420
      2  C15      -48.3760  -28.9210    5.2260 C.ar  201  S6N201      0.0042
      3  C14      -47.5800  -29.6060    4.3170 C.ar  201  S6N201     -0.0329
      4  C13      -46.3040  -29.7140    4.9000 C.ar  201  S6N201      0.0491
      5  C12      -45.0480  -30.2410    4.5610 C.ar  201  S6N201      0.1379
      6  C11      -44.8960  -30.9700    3.2550 C.2   201  S6N201      0.2661
      7  C19      -44.1730  -29.5780    6.5250 C.ar  201  S6N201      0.1191
      8  C01      -45.9570  -32.0890    0.7480 C.3   201  S6N201     -0.0438
      9  C02      -44.8730  -31.0180    0.7030 C.3   201  S6N201      0.0322
     10  C03      -44.9790  -30.1110   -0.5370 C.3   201  S6N201     -0.0312
     11  C04      -46.0590  -29.1090   -0.4900 C.3   201  S6N201     -0.0410
     12  C05      -46.1360  -28.3360    0.7650 C.3   201  S6N201      0.0236
     13  C06      -45.7110  -26.8680    0.4420 C.2   201  S6N201      0.0917
     14  C09      -45.1750  -28.8040    1.8570 C.3   201  S6N201      0.0242
     15  C22      -43.5130  -31.6940    0.7070 C.3   201  S6N201     -0.0438
     16  N10      -44.9930  -30.2830    2.0020 N.am  201  S6N201     -0.2904
     17  N16      -47.6410  -28.6420    6.2810 N.ar  201  S6N201     -0.3457
     18  N18      -45.3180  -29.0570    6.8790 N.ar  201  S6N201     -0.2179
     19  N20      -44.0160  -30.1750    5.3690 N.ar  201  S6N201     -0.2301
     20  O07      -44.6080  -26.6580   -0.1280 O.co2 201  S6N201     -0.8474
     21  O08      -46.4470  -25.9000    0.7560 O.co2 201  S6N201     -0.3087
     22  O21      -44.7590  -32.1450    3.3070 O.2   201  S6N201     -0.2683
     23 H151      -49.4150  -28.6740    5.0900 H     201  S6N201      0.0807
     24 H141      -47.8900  -29.9690    3.3450 H     201  S6N201      0.0640
     25 H191      -43.3440  -29.5000    7.1990 H     201  S6N201      0.1048
     26 H012      -46.0820  -32.4990   -0.2340 H     201  S6N201      0.0250
     27 H011      -46.8820  -31.6410    1.0890 H     201  S6N201      0.0250
     28 H013      -45.6710  -32.8920    1.4280 H     201  S6N201      0.0250
     29 H031      -44.0270  -29.6090   -0.6830 H     201  S6N201      0.0286
     30 H032      -45.1280  -30.7400   -1.4080 H     201  S6N201      0.0286
     31 H042      -47.0040  -29.6080   -0.6580 H     201  S6N201      0.0273
     32 H041      -45.9000  -28.3920   -1.2860 H     201  S6N201      0.0273
     33 H051      -47.1510  -28.3720    1.1590 H     201  S6N201      0.0384
     34 H092      -45.5820  -28.4240    2.7760 H     201  S6N201      0.0471
     35 H091      -44.2000  -28.3530    1.7030 H     201  S6N201      0.0471
     36 H222      -43.3170  -32.0880   -0.2760 H     201  S6N201      0.0250
     37 H221      -43.5010  -32.5010    1.4300 H     201  S6N201      0.0250
     38 H223      -42.7600  -30.9590    0.9690 H     201  S6N201      0.0250
     39 H161      -47.9650  -28.1560    7.0890 H     201  S6N201      0.1668
@<TRIPOS>UNITY_ATOM_ATTR
20 1
charge -1
@<TRIPOS>BOND
     1    30    10    1
     2    32    11    1
     3    29    10    1
     4    31    11    1
     5    10    11    1
     6    10     9    1
     7    11    12    1
     8    36    15    1
     9    26     8    1
    10    20    13   ar
    11    13    21   ar
    12    13    12    1
    13     9    15    1
    14     9     8    1
    15     9    16    1
    16    15    38    1
    17    15    37    1
    18     8    27    1
    19     8    28    1
    20    12    33    1
    21    12    14    1
    22    35    14    1
    23    14    16    1
    24    14    34    1
    25    16     6   am
    26     6    22    2
    27     6     5    1
    28    24     3    1
    29     3     4   ar
    30     3     2   ar
    31     5     4   ar
    32     5    19   ar
    33     4     1   ar
    34    23     2    1
    35     2    17   ar
    36    19     7   ar
    37     1    17   ar
    38     1    18   ar
    39    17    39    1
    40     7    18   ar
    41     7    25    1
