QLF
  -OEChem-02242320033D

 45 48  0     1  0  0  0  0  0999 V2000
    4.2560   -0.6450   -0.7500 C   0  0  0  0  0  0  0  0  0  0  0  0
    3.0770    0.3730    1.0550 C   0  0  0  0  0  0  0  0  0  0  0  0
    4.2670    0.0450    0.4580 C   0  0  0  0  0  0  0  0  0  0  0  0
    1.8820    0.0010    0.4240 C   0  0  0  0  0  0  0  0  0  0  0  0
    0.5780    0.3390    1.0270 C   0  0  0  0  0  0  0  0  0  0  0  0
   -1.8580    0.3110    1.0100 C   0  0  2  0  0  0  0  0  0  0  0  0
   -2.9070   -0.6970    0.5930 C   0  0  0  0  0  0  0  0  0  0  0  0
   -2.8430   -2.0790    0.5170 C   0  0  0  0  0  0  0  0  0  0  0  0
    6.6990   -0.3770   -0.9240 C   0  0  0  0  0  0  0  0  0  0  0  0
   -1.8110    1.9380   -0.9020 C   0  0  0  0  0  0  0  0  0  0  0  0
   -2.3640    1.6670    0.4740 C   0  0  1  0  0  0  0  0  0  0  0  0
   -3.8920    1.4510    0.4180 C   0  0  0  0  0  0  0  0  0  0  0  0
   -4.0750   -0.0420    0.2530 C   0  0  0  0  0  0  0  0  0  0  0  0
   -5.1810   -0.7730   -0.1640 C   0  0  0  0  0  0  0  0  0  0  0  0
   -5.1130   -2.1560   -0.2380 C   0  0  0  0  0  0  0  0  0  0  0  0
   -3.9430   -2.8060    0.1020 C   0  0  0  0  0  0  0  0  0  0  0  0
    6.7130   -0.4040    0.6100 C   0  0  0  0  0  0  0  0  0  0  0  0
    5.5540    0.4480    1.1280 C   0  0  0  0  0  0  0  0  0  0  0  0
    1.9450   -0.6930   -0.7860 C   0  0  0  0  0  0  0  0  0  0  0  0
   -0.5640   -0.0240    0.4110 N   0  0  0  0  0  0  0  0  0  0  0  0
    5.4450   -0.9970   -1.3740 N   0  0  0  0  0  0  0  0  0  0  0  0
    3.1070   -0.9860   -1.3260 N   0  0  0  0  0  0  0  0  0  0  0  0
   -2.4690    1.6740   -1.8800 O   0  0  0  0  0  0  0  0  0  0  0  0
   -6.3310   -0.1320   -0.4990 O   0  0  0  0  0  0  0  0  0  0  0  0
    0.5350    0.9440    2.0810 O   0  0  0  0  0  0  0  0  0  0  0  0
   -0.5890    2.4750   -1.0390 O   0  0  0  0  0  0  0  0  0  0  0  0
    3.0610    0.9110    1.9920 H   0  0  0  0  0  0  0  0  0  0  0  0
   -1.7740    0.3420    2.0970 H   0  0  0  0  0  0  0  0  0  0  0  0
   -1.9300   -2.5900    0.7840 H   0  0  0  0  0  0  0  0  0  0  0  0
    6.7480    0.6530   -1.2750 H   0  0  0  0  0  0  0  0  0  0  0  0
    7.5480   -0.9400   -1.3110 H   0  0  0  0  0  0  0  0  0  0  0  0
   -2.1090    2.4750    1.1590 H   0  0  0  0  0  0  0  0  0  0  0  0
   -4.3550    1.7890    1.3450 H   0  0  0  0  0  0  0  0  0  0  0  0
   -4.3180    1.9820   -0.4330 H   0  0  0  0  0  0  0  0  0  0  0  0
   -5.9720   -2.7230   -0.5620 H   0  0  0  0  0  0  0  0  0  0  0  0
   -3.8870   -3.8830    0.0450 H   0  0  0  0  0  0  0  0  0  0  0  0
    6.5970   -1.4300    0.9590 H   0  0  0  0  0  0  0  0  0  0  0  0
    7.6580    0.0000    0.9740 H   0  0  0  0  0  0  0  0  0  0  0  0
    5.7560    1.4980    0.9180 H   0  0  0  0  0  0  0  0  0  0  0  0
    5.4580    0.3100    2.2050 H   0  0  0  0  0  0  0  0  0  0  0  0
    1.0320   -0.9850   -1.2850 H   0  0  0  0  0  0  0  0  0  0  0  0
   -0.5290   -0.5070   -0.4300 H   0  0  0  0  0  0  0  0  0  0  0  0
    5.4490   -1.6430   -2.0970 H   0  0  0  0  0  0  0  0  0  0  0  0
   -6.3870    0.1130   -1.4330 H   0  0  0  0  0  0  0  0  0  0  0  0
   -0.2770    2.6310   -1.9410 H   0  0  0  0  0  0  0  0  0  0  0  0
 10 23  2  0  0  0  0
 11 12  1  0  0  0  0
 12 13  1  0  0  0  0
 13 14  2  0  0  0  0
 14 24  1  0  0  0  0
 14 15  1  0  0  0  0
 15 16  2  0  0  0  0
  8 16  1  0  0  0  0
  7  8  2  0  0  0  0
  6  7  1  0  0  0  0
  6 20  1  0  0  0  0
  5 20  1  0  0  0  0
  2  4  2  0  0  0  0
  2  3  1  0  0  0  0
  1  3  2  0  0  0  0
  9 21  1  0  0  0  0
  9 17  1  0  0  0  0
 17 18  1  0  0  0  0
  1 21  1  0  0  0  0
  1 22  1  0  0  0  0
 19 22  2  0  0  0  0
  4  5  1  0  0  0  0
  5 25  2  0  0  0  0
 10 11  1  0  0  0  0
 10 26  1  0  0  0  0
  6 11  1  0  0  0  0
  7 13  1  0  0  0  0
  4 19  1  0  0  0  0
  3 18  1  0  0  0  0
  2 27  1  0  0  0  0
  6 28  1  0  0  0  0
  8 29  1  0  0  0  0
  9 30  1  0  0  0  0
  9 31  1  0  0  0  0
 11 32  1  0  0  0  0
 12 33  1  0  0  0  0
 12 34  1  0  0  0  0
 15 35  1  0  0  0  0
 16 36  1  0  0  0  0
 17 37  1  0  0  0  0
 17 38  1  0  0  0  0
 18 39  1  0  0  0  0
 18 40  1  0  0  0  0
 19 41  1  0  0  0  0
 20 42  1  0  0  0  0
 21 43  1  0  0  0  0
 24 44  1  0  0  0  0
 26 45  1  0  0  0  0
M  END
> <OPENEYE_ISO_SMILES>
c1cc2c(c(c1)O)C[C@@H]([C@@H]2NC(=O)c3cc4c(nc3)NCCC4)C(=O)O

> <OPENEYE_INCHI>
InChI=1S/C19H19N3O4/c23-15-5-1-4-12-13(15)8-14(19(25)26)16(12)22-18(24)11-7-10-3-2-6-20-17(10)21-9-11/h1,4-5,7,9,14,16,23H,2-3,6,8H2,(H,20,21)(H,22,24)(H,25,26)/t14-,16+/m0/s1

> <OPENEYE_INCHIKEY>
FYBAGYYARXHEJD-GOEBONIOSA-N

> <FORMULA>
C19H19N3O4

$$$$
