QLU
  -OEChem-02242320033D

 45 48  0     1  0  0  0  0  0999 V2000
    1.9750   -2.7960   -0.2440 C   0  0  0  0  0  0  0  0  0  0  0  0
    2.8560   -1.6380   -0.6370 C   0  0  2  0  0  0  0  0  0  0  0  0
    3.6320   -1.1010    0.5830 C   0  0  0  0  0  0  0  0  0  0  0  0
    3.7160    0.3960    0.3720 C   0  0  0  0  0  0  0  0  0  0  0  0
    4.5460    1.3430    0.9580 C   0  0  0  0  0  0  0  0  0  0  0  0
    4.4380    2.6790    0.6000 C   0  0  0  0  0  0  0  0  0  0  0  0
    3.5030    3.0660   -0.3400 C   0  0  0  0  0  0  0  0  0  0  0  0
    2.6780    2.1230   -0.9220 C   0  0  0  0  0  0  0  0  0  0  0  0
    2.7820    0.7880   -0.5680 C   0  0  0  0  0  0  0  0  0  0  0  0
    2.0070   -0.4190   -1.0530 C   0  0  2  0  0  0  0  0  0  0  0  0
   -0.3720    0.1070   -1.0000 C   0  0  0  0  0  0  0  0  0  0  0  0
   -1.6960    0.0540   -0.3510 C   0  0  0  0  0  0  0  0  0  0  0  0
   -2.8120    0.6460   -0.9590 C   0  0  0  0  0  0  0  0  0  0  0  0
   -4.0250    0.5730   -0.3230 C   0  0  0  0  0  0  0  0  0  0  0  0
   -4.1140   -0.0830    0.9000 C   0  0  0  0  0  0  0  0  0  0  0  0
   -6.4480    0.6700    1.1320 C   0  0  0  0  0  0  0  0  0  0  0  0
   -6.5150    0.6170   -0.4000 C   0  0  0  0  0  0  0  0  0  0  0  0
   -5.2260    1.2100   -0.9690 C   0  0  0  0  0  0  0  0  0  0  0  0
   -1.8590   -0.5910    0.8770 C   0  0  0  0  0  0  0  0  0  0  0  0
    0.6920   -0.4710   -0.4080 N   0  0  0  0  0  0  0  0  0  0  0  0
   -5.3300   -0.1780    1.5640 N   0  0  0  0  0  0  0  0  0  0  0  0
   -3.0390   -0.6340    1.4560 N   0  0  0  0  0  0  0  0  0  0  0  0
    1.6990   -2.9780    0.9180 O   0  0  0  0  0  0  0  0  0  0  0  0
    5.4650    0.9610    1.8830 O   0  0  0  0  0  0  0  0  0  0  0  0
   -0.2410    0.6710   -2.0690 O   0  0  0  0  0  0  0  0  0  0  0  0
    1.4920   -3.6220   -1.1860 O   0  0  0  0  0  0  0  0  0  0  0  0
    3.5380   -1.9270   -1.4380 H   0  0  0  0  0  0  0  0  0  0  0  0
    3.0920   -1.3230    1.5030 H   0  0  0  0  0  0  0  0  0  0  0  0
    4.6310   -1.5350    0.6180 H   0  0  0  0  0  0  0  0  0  0  0  0
    5.0840    3.4150    1.0560 H   0  0  0  0  0  0  0  0  0  0  0  0
    3.4170    4.1050   -0.6200 H   0  0  0  0  0  0  0  0  0  0  0  0
    1.9470    2.4280   -1.6560 H   0  0  0  0  0  0  0  0  0  0  0  0
    1.8960   -0.3860   -2.1370 H   0  0  0  0  0  0  0  0  0  0  0  0
   -2.7180    1.1500   -1.9100 H   0  0  0  0  0  0  0  0  0  0  0  0
   -6.2800    1.6970    1.4580 H   0  0  0  0  0  0  0  0  0  0  0  0
   -7.3800    0.2970    1.5560 H   0  0  0  0  0  0  0  0  0  0  0  0
   -6.6160   -0.4180   -0.7260 H   0  0  0  0  0  0  0  0  0  0  0  0
   -7.3710    1.1950   -0.7490 H   0  0  0  0  0  0  0  0  0  0  0  0
   -5.2090    2.2840   -0.7810 H   0  0  0  0  0  0  0  0  0  0  0  0
   -5.1920    1.0350   -2.0450 H   0  0  0  0  0  0  0  0  0  0  0  0
   -1.0090   -1.0550    1.3560 H   0  0  0  0  0  0  0  0  0  0  0  0
    0.5880   -0.9210    0.4440 H   0  0  0  0  0  0  0  0  0  0  0  0
   -5.4390   -0.7970    2.3030 H   0  0  0  0  0  0  0  0  0  0  0  0
    6.3260    0.7260    1.5080 H   0  0  0  0  0  0  0  0  0  0  0  0
    0.9280   -4.3480   -0.8860 H   0  0  0  0  0  0  0  0  0  0  0  0
  1 23  2  0  0  0  0
  2  3  1  0  0  0  0
  3  4  1  0  0  0  0
  4  5  2  0  0  0  0
  5 24  1  0  0  0  0
  5  6  1  0  0  0  0
  6  7  2  0  0  0  0
  7  8  1  0  0  0  0
  8  9  2  0  0  0  0
  9 10  1  0  0  0  0
 10 20  1  0  0  0  0
 11 20  1  0  0  0  0
 12 13  2  0  0  0  0
 13 14  1  0  0  0  0
 14 15  2  0  0  0  0
 16 21  1  0  0  0  0
 16 17  1  0  0  0  0
 17 18  1  0  0  0  0
 15 21  1  0  0  0  0
 15 22  1  0  0  0  0
 19 22  2  0  0  0  0
 11 12  1  0  0  0  0
 11 25  2  0  0  0  0
  1  2  1  0  0  0  0
  1 26  1  0  0  0  0
  2 10  1  0  0  0  0
  4  9  1  0  0  0  0
 12 19  1  0  0  0  0
 14 18  1  0  0  0  0
  2 27  1  0  0  0  0
  3 28  1  0  0  0  0
  3 29  1  0  0  0  0
  6 30  1  0  0  0  0
  7 31  1  0  0  0  0
  8 32  1  0  0  0  0
 10 33  1  0  0  0  0
 13 34  1  0  0  0  0
 16 35  1  0  0  0  0
 16 36  1  0  0  0  0
 17 37  1  0  0  0  0
 17 38  1  0  0  0  0
 18 39  1  0  0  0  0
 18 40  1  0  0  0  0
 19 41  1  0  0  0  0
 20 42  1  0  0  0  0
 21 43  1  0  0  0  0
 24 44  1  0  0  0  0
 26 45  1  0  0  0  0
M  END
> <OPENEYE_ISO_SMILES>
c1cc2c(c(c1)O)C[C@H]([C@H]2NC(=O)c3cc4c(nc3)NCCC4)C(=O)O

> <OPENEYE_INCHI>
InChI=1S/C19H19N3O4/c23-15-5-1-4-12-13(15)8-14(19(25)26)16(12)22-18(24)11-7-10-3-2-6-20-17(10)21-9-11/h1,4-5,7,9,14,16,23H,2-3,6,8H2,(H,20,21)(H,22,24)(H,25,26)/t14-,16+/m1/s1

> <OPENEYE_INCHIKEY>
FYBAGYYARXHEJD-ZBFHGGJFSA-N

> <FORMULA>
C19H19N3O4

$$$$
