@<TRIPOS>MOLECULE
/home/pku/3cl/gett_pdb/6XQU/6XQU_mol2/ligand/6XQU_U5G.pdb
 37 39 0 0 0
SMALL
GASTEIGER

@<TRIPOS>ATOM
      1  C28        3.0120    5.1960   16.4820 C.2   401  U5G401      0.3395
      2  N29        3.9200    6.1330   16.8530 N.am  401  U5G401     -0.1906
      3  O34        1.9440    4.9830   17.0690 O.2   401  U5G401     -0.2492
      4  C30        3.9100    6.9040   18.1210 C.3   401  U5G401      0.0804
      5  C31        3.9970    5.9470   19.3030 C.3   401  U5G401      0.0218
      6  C32        5.1140    7.8320   18.1250 C.3   401  U5G401      0.0218
      7  C33        2.6280    7.7200   18.2040 C.3   401  U5G401      0.0218
      8  N27        3.3990    4.5110   15.3780 N.am  401  U5G401     -0.1796
      9  C22        2.5490    3.4510   14.8710 C.3   401  U5G401      0.1727
     10  C23        1.9300    3.8010   13.4870 C.3   401  U5G401      0.0270
     11  C24        1.1020    2.6190   12.9780 C.3   401  U5G401      0.0022
     12  C25        3.0170    4.1230   12.4610 C.3   401  U5G401      0.0022
     13  C26        1.0200    5.0210   13.6320 C.3   401  U5G401      0.0022
     14  C21        3.3750    2.1540   14.8820 C.2   401  U5G401      0.2459
     15  O35        4.4950    2.1460   14.4000 O.2   401  U5G401     -0.2730
     16  N20        2.8390    1.0500   15.4250 N.am  401  U5G401     -0.2716
     17  C19        1.5750    0.8990   16.1550 C.3   401  U5G401      0.0939
     18  C13        3.5710   -0.2080   15.3090 C.3   401  U5G401      0.1535
     19  C14        2.9790   -1.0870   16.4310 C.3   401  U5G401      0.0289
     20  C15        1.7120   -0.4110   16.9180 C.3   401  U5G401      0.0220
     21  C16        2.8650   -0.6290   17.8680 C.3   401  U5G401      0.0037
     22  C17        3.6690    0.5800   18.3610 C.3   401  U5G401      0.0001
     23  C18        2.7420   -1.7380   18.9130 C.3   401  U5G401      0.0001
     24  C12        3.3260   -0.8420   13.9320 C.2   401  U5G401      0.2595
     25  O36        2.1950   -0.9310   13.4690 O.2   401  U5G401     -0.2716
     26  N11        4.4200   -1.2850   13.3010 N.am  401  U5G401     -0.2027
     27  C05        4.4030   -1.9160   11.9880 C.3   401  U5G401      0.1347
     28  C06        5.3980   -1.1940   11.0770 C.3   401  U5G401      0.0248
     29  C07        5.2190    0.3170   10.9740 C.3   401  U5G401      0.0018
     30  C10        3.9790    0.8360   10.2290 C.3   401  U5G401      0.0001
     31  C08        6.1610    1.0650   10.0120 C.3   401  U5G401      0.0001
     32  C09        4.9290    1.3340    9.0820 C.3   401  U5G401      0.0000
     33  O04        4.0580   -3.8410   13.2530 O.3   401  U5G401     -0.2113
     34  C03        4.7990   -3.4010   12.1350 C.3   401  U5G401      0.2503
     35  O01        4.9680   -4.0370    9.8490 O.2   401  U5G401     -0.2688
     36  C02        4.3600   -4.1870   10.9150 C.2   401  U5G401      0.2929
     37  N37        3.3780   -5.0580   11.0710 N.am  401  U5G401     -0.0855
@<TRIPOS>BOND
     1    32    31    1
     2    32    30    1
     3    35    36    2
     4    31    29    1
     5    30    29    1
     6    36    37   am
     7    36    34    1
     8    29    28    1
     9    28    27    1
    10    27    34    1
    11    27    26    1
    12    34    33    1
    13    12    10    1
    14    11    10    1
    15    26    24   am
    16    25    24    2
    17    10    13    1
    18    10     9    1
    19    24    18    1
    20    15    14    2
    21     9    14    1
    22     9     8    1
    23    14    16   am
    24    18    16    1
    25    18    19    1
    26     8     1   am
    27    16    17    1
    28    17    20    1
    29    19    20    1
    30    19    21    1
    31     1     2   am
    32     1     3    2
    33     2     4    1
    34    20    21    1
    35    21    22    1
    36    21    23    1
    37     4     6    1
    38     4     7    1
    39     4     5    1
