@<TRIPOS>MOLECULE
/home/pku/3cl/gett_pdb/5SQH/5SQH_mol2/ligand/5SQH_QR6.pdb
 49 52 0 0 0
SMALL
GASTEIGER

@<TRIPOS>ATOM
      1  C18      -50.3580  -28.8960    5.7370 C.ar  201  QR6201     -0.0213
      2  C16      -49.7580  -28.9160    4.4990 C.ar  201  QR6201      0.0548
      3  C15      -48.3910  -29.0740    4.3980 C.ar  201  QR6201      0.0551
      4  C14      -47.6850  -29.1310    3.0450 C.2   201  QR6201      0.2460
      5  C12      -45.8610  -30.0620    1.7200 C.3   201  QR6201      0.0580
      6  C11      -45.7120  -31.4290    1.0360 C.ar  201  QR6201     -0.0199
      7  C10      -46.5610  -32.5340    0.8920 C.ar  201  QR6201     -0.0563
      8  C19      -49.5610  -29.0010    6.8630 C.ar  201  QR6201      0.0362
      9  C02      -43.8140  -29.8510    3.2070 C.2   201  QR6201      0.0926
     10  C03      -44.4770  -29.4930    1.8810 C.3   201  QR6201      0.0343
     11  C04      -43.7420  -30.0950    0.7200 C.3   201  QR6201     -0.0132
     12  C05      -44.4760  -31.4130    0.4150 C.ar  201  QR6201     -0.0003
     13  C06      -44.0390  -32.5060   -0.3300 C.ar  201  QR6201      0.1204
     14  C08      -44.8740  -33.6090   -0.4640 C.ar  201  QR6201     -0.0199
     15  C09      -46.1300  -33.6270    0.1450 C.ar  201  QR6201     -0.0580
     16  C21      -51.5380  -29.0840    8.4670 C.2   201  QR6201      0.3041
     17  C23      -53.2660  -29.2020   10.2880 C.3   201  QR6201      0.0247
     18  C24      -53.5200  -30.0540   11.5300 C.3   201  QR6201     -0.0328
     19  C25      -53.9010  -30.5900   10.1480 C.3   201  QR6201     -0.0328
     20  C27      -48.1940  -29.1820    6.7640 C.ar  201  QR6201     -0.0396
     21  C28      -47.6010  -29.2150    5.5210 C.ar  201  QR6201     -0.0465
     22  N13      -46.5270  -30.0210    2.9750 N.am  201  QR6201     -0.3038
     23  N20      -50.1120  -29.0250    8.2010 N.am  201  QR6201     -0.2694
     24  N22      -51.8770  -29.1450    9.8710 N.am  201  QR6201     -0.2963
     25  O01      -43.8920  -31.0240    3.6720 O.co2 201  QR6201     -0.8473
     26  O07      -42.7750  -32.4600   -0.9440 O.3   201  QR6201     -0.5065
     27  O26      -52.3820  -29.0480    7.6300 O.2   201  QR6201     -0.2525
     28  O29      -48.0590  -28.5210    2.0970 O.2   201  QR6201     -0.2701
     29  O30      -43.1800  -28.9540    3.8330 O.co2 201  QR6201     -0.3086
     30 CL17      -50.7780  -28.7450    3.0550 Cl    201  QR6201     -0.0827
     31 H181      -51.4370  -28.7670    5.8060 H     201  QR6201      0.0651
     32 H121      -46.4080  -29.4330    1.0250 H     201  QR6201      0.0555
     33 H101      -47.5460  -32.5410    1.3650 H     201  QR6201      0.0621
     34 H031      -44.5590  -28.4240    1.7700 H     201  QR6201      0.0393
     35 H042      -42.7180  -30.3110    1.0140 H     201  QR6201      0.0322
     36 H041      -43.8010  -29.4200   -0.1180 H     201  QR6201      0.0322
     37 H081      -44.5460  -34.4650   -1.0430 H     201  QR6201      0.0654
     38 H091      -46.7750  -34.4960    0.0300 H     201  QR6201      0.0619
     39 H231      -53.9310  -28.3700   10.1000 H     201  QR6201      0.0499
     40 H241      -54.3610  -29.7560   12.1460 H     201  QR6201      0.0284
     41 H242      -52.6400  -30.5120   11.9800 H     201  QR6201      0.0284
     42 H252      -54.9710  -30.6170    9.9560 H     201  QR6201      0.0284
     43 H251      -53.2580  -31.3820    9.7630 H     201  QR6201      0.0284
     44 H271      -47.5940  -29.2930    7.6600 H     201  QR6201      0.0636
     45 H281      -46.5280  -29.3450    5.4190 H     201  QR6201      0.0626
     46 H131      -46.2060  -30.5300    3.7780 H     201  QR6201      0.1496
     47 H201      -49.4780  -29.0740    8.9770 H     201  QR6201      0.1564
     48 H221      -51.1400  -29.1700   10.5420 H     201  QR6201      0.1505
     49 H071      -42.8680  -32.6650   -1.8680 H     201  QR6201      0.2921
@<TRIPOS>UNITY_ATOM_ATTR
25 1
charge -1
@<TRIPOS>BOND
     1    49    26    1
     2    37    14    1
     3    26    13    1
     4    14    13   ar
     5    14    15   ar
     6    13    12   ar
     7    36    11    1
     8    38    15    1
     9    15     7   ar
    10    12    11    1
    11    12     6   ar
    12    11    35    1
    13    11    10    1
    14     7     6   ar
    15     7    33    1
    16    32     5    1
    17     6     5    1
    18     5    10    1
    19     5    22    1
    20    34    10    1
    21    10     9    1
    22    28     4    2
    23    22     4   am
    24    22    46    1
    25     4     3    1
    26    30     2    1
    27     9    25   ar
    28     9    29   ar
    29     3     2   ar
    30     3    21   ar
    31     2     1   ar
    32    45    21    1
    33    21    20   ar
    34     1    31    1
    35     1     8   ar
    36    20     8   ar
    37    20    44    1
    38     8    23    1
    39    27    16    2
    40    23    16   am
    41    23    47    1
    42    16    24   am
    43    43    19    1
    44    24    17    1
    45    24    48    1
    46    42    19    1
    47    39    17    1
    48    19    17    1
    49    19    18    1
    50    17    18    1
    51    18    41    1
    52    18    40    1
