@<TRIPOS>MOLECULE
/home/pku/3cl/gett_pdb/5SPE/5SPE_mol2/ligand/5SPE_S1F.pdb
 43 45 0 0 0
SMALL
GASTEIGER

@<TRIPOS>ATOM
      1  C18      -45.0310  -30.5760    1.2440 C.ar  201  S1F201     -0.0234
      2  C16      -42.8190  -29.6760    1.3940 C.3   201  S1F201     -0.0174
      3  C17      -43.7200  -30.8100    0.8400 C.ar  201  S1F201     -0.0417
      4  C13      -43.3720  -29.9220    3.8030 C.2   201  S1F201      0.0472
      5  C12      -43.6390  -29.1090    2.5370 C.3   201  S1F201      0.0251
      6  C11      -45.0520  -29.2700    2.0560 C.3   201  S1F201      0.0571
      7  C20      -45.7230  -32.5810    0.1040 C.ar  201  S1F201     -0.0614
      8  C19      -46.0360  -31.4630    0.8680 C.ar  201  S1F201     -0.0565
      9  C01      -53.6500  -29.7560    9.4460 C.3   201  S1F201      0.0833
     10  C03      -51.8050  -29.1140    8.1410 C.2   201  S1F201      0.4043
     11  C05      -49.7060  -29.0420    6.6640 C.ar  201  S1F201      0.0365
     12  C06      -50.3780  -28.9980    5.4470 C.ar  201  S1F201     -0.0397
     13  C07      -49.6690  -28.9900    4.2490 C.ar  201  S1F201     -0.0479
     14  C08      -48.2810  -29.0340    4.2710 C.ar  201  S1F201      0.0368
     15  C09      -47.4180  -29.0190    3.0020 C.2   201  S1F201      0.2445
     16  C21      -44.4090  -32.8180   -0.2910 C.ar  201  S1F201     -0.0615
     17  C22      -43.4060  -31.9340    0.0760 C.ar  201  S1F201     -0.0582
     18  C24      -47.6270  -29.0710    5.4900 C.ar  201  S1F201     -0.0479
     19  C25      -48.3270  -29.0760    6.6760 C.ar  201  S1F201     -0.0397
     20  N04      -50.3640  -29.0450    7.9610 N.am  201  S1F201     -0.2512
     21  N10      -45.9950  -29.2800    3.1570 N.am  201  S1F201     -0.3039
     22  O02      -52.3030  -29.3900    9.4140 O.3   201  S1F201     -0.4535
     23  O14      -43.6990  -29.4610    4.9280 O.co2 201  S1F201     -0.5495
     24  O15      -42.8340  -31.0590    3.7250 O.co2 201  S1F201     -0.5495
     25  O23      -47.8890  -28.7910    1.9390 O.2   201  S1F201     -0.2702
     26  O26      -52.5560  -28.9260    7.2460 O.2   201  S1F201     -0.2261
     27 H162      -42.6710  -28.9180    0.6340 H     201  S1F201      0.0320
     28 H161      -41.8780  -30.0900    1.7510 H     201  S1F201      0.0320
     29 H121      -43.4000  -28.0570    2.6780 H     201  S1F201      0.0385
     30 H111      -45.2880  -28.4490    1.3970 H     201  S1F201      0.0555
     31 H201      -46.5040  -33.2700   -0.1840 H     201  S1F201      0.0618
     32 H191      -47.0560  -31.2820    1.1770 H     201  S1F201      0.0621
     33 H013      -53.9290  -29.9640   10.4740 H     201  S1F201      0.0661
     34 H011      -53.8120  -30.6420    8.8380 H     201  S1F201      0.0661
     35 H012      -54.2530  -28.9380    9.0630 H     201  S1F201      0.0661
     36 H061      -51.4600  -28.9690    5.4240 H     201  S1F201      0.0636
     37 H071      -50.2040  -28.9560    3.3050 H     201  S1F201      0.0626
     38 H211      -44.1700  -33.6890   -0.8890 H     201  S1F201      0.0618
     39 H221      -42.3840  -32.1120   -0.2290 H     201  S1F201      0.0620
     40 H241      -46.5520  -29.0990    5.5200 H     201  S1F201      0.0626
     41 H251      -47.7890  -29.1120    7.6170 H     201  S1F201      0.0636
     42 H041      -49.7850  -28.9820    8.7780 H     201  S1F201      0.1582
     43 H101      -45.6620  -29.4550    4.0710 H     201  S1F201      0.1496
@<TRIPOS>UNITY_ATOM_ATTR
23 1
charge -1
@<TRIPOS>BOND
     1    38    16    1
     2    16    17   ar
     3    16     7   ar
     4    39    17    1
     5    31     7    1
     6    17     3   ar
     7     7     8   ar
     8    27     2    1
     9     3     1   ar
    10     3     2    1
    11     8    32    1
    12     8     1   ar
    13     1     6    1
    14     2    28    1
    15     2     5    1
    16    30     6    1
    17    25    15    2
    18     6     5    1
    19     6    21    1
    20     5    29    1
    21     5     4    1
    22    15    21   am
    23    15    14    1
    24    21    43    1
    25    37    13    1
    26    24     4   ar
    27     4    23   ar
    28    13    14   ar
    29    13    12   ar
    30    14    18   ar
    31    36    12    1
    32    12    11   ar
    33    18    40    1
    34    18    19   ar
    35    11    19   ar
    36    11    20    1
    37    19    41    1
    38    26    10    2
    39    20    10   am
    40    20    42    1
    41    10    22    1
    42    34     9    1
    43    35     9    1
    44    22     9    1
    45     9    33    1
