RS9
  -OEChem-02242320043D

 44 47  0     1  0  0  0  0  0999 V2000
    4.5190   -0.7210    0.4720 C   0  0  0  0  0  0  0  0  0  0  0  0
    3.2620   -2.8120   -0.1250 C   0  0  0  0  0  0  0  0  0  0  0  0
    3.1550   -1.4430    0.4950 C   0  0  2  0  0  0  0  0  0  0  0  0
    2.2760   -0.5160   -0.3710 C   0  0  2  0  0  0  0  0  0  0  0  0
   -0.1190   -0.1950   -0.6890 C   0  0  0  0  0  0  0  0  0  0  0  0
   -1.5030   -0.1740   -0.1750 C   0  0  0  0  0  0  0  0  0  0  0  0
    4.9630    1.8770    0.4370 C   0  0  0  0  0  0  0  0  0  0  0  0
    4.1910    0.7380    0.2400 C   0  0  0  0  0  0  0  0  0  0  0  0
   -7.4710    0.5140   -0.4460 C   0  0  0  0  0  0  0  0  0  0  0  0
   -6.0010    0.3010   -0.1980 C   0  0  0  0  0  0  0  0  0  0  0  0
   -3.8590    0.1590   -0.5360 C   0  0  0  0  0  0  0  0  0  0  0  0
   -4.0920   -0.1440    0.8180 C   0  0  0  0  0  0  0  0  0  0  0  0
   -3.0280   -0.4520    1.6590 C   0  0  0  0  0  0  0  0  0  0  0  0
   -1.7530   -0.4680    1.1720 C   0  0  0  0  0  0  0  0  0  0  0  0
    4.4420    3.1280    0.1470 C   0  0  0  0  0  0  0  0  0  0  0  0
    3.1530    3.2410   -0.3380 C   0  0  0  0  0  0  0  0  0  0  0  0
    2.3860    2.1090   -0.5320 C   0  0  0  0  0  0  0  0  0  0  0  0
    2.9030    0.8560   -0.2450 C   0  0  0  0  0  0  0  0  0  0  0  0
   -2.5550    0.1420   -1.0290 C   0  0  0  0  0  0  0  0  0  0  0  0
   -5.0680    0.4200   -1.0970 N   0  0  0  0  0  0  0  0  0  0  0  0
   -5.4550   -0.0460    1.0000 N   0  0  0  0  0  0  0  0  0  0  0  0
    0.9020   -0.4950    0.1380 N   0  0  0  0  0  0  0  0  0  0  0  0
   -8.1960    0.2970    0.7660 O   0  0  0  0  0  0  0  0  0  0  0  0
    4.0750   -3.7320    0.4170 O   0  0  0  0  0  0  0  0  0  0  0  0
    2.6170   -3.0810   -1.1110 O   0  0  0  0  0  0  0  0  0  0  0  0
    6.2300    1.7630    0.9140 O   0  0  0  0  0  0  0  0  0  0  0  0
    0.1000    0.0600   -1.8570 O   0  0  0  0  0  0  0  0  0  0  0  0
    5.0290   -0.8470    1.4280 H   0  0  0  0  0  0  0  0  0  0  0  0
    5.1370   -1.1060   -0.3390 H   0  0  0  0  0  0  0  0  0  0  0  0
    2.7680   -1.5090    1.5120 H   0  0  0  0  0  0  0  0  0  0  0  0
    2.2880   -0.8450   -1.4100 H   0  0  0  0  0  0  0  0  0  0  0  0
   -7.6370    1.5350   -0.7900 H   0  0  0  0  0  0  0  0  0  0  0  0
   -7.8170   -0.1860   -1.2060 H   0  0  0  0  0  0  0  0  0  0  0  0
   -3.2110   -0.6840    2.6970 H   0  0  0  0  0  0  0  0  0  0  0  0
   -0.9310   -0.7080    1.8300 H   0  0  0  0  0  0  0  0  0  0  0  0
    5.0420    4.0130    0.2990 H   0  0  0  0  0  0  0  0  0  0  0  0
    2.7450    4.2150   -0.5640 H   0  0  0  0  0  0  0  0  0  0  0  0
    1.3790    2.2010   -0.9110 H   0  0  0  0  0  0  0  0  0  0  0  0
   -2.3630    0.3730   -2.0660 H   0  0  0  0  0  0  0  0  0  0  0  0
   -5.9360   -0.1960    1.8290 H   0  0  0  0  0  0  0  0  0  0  0  0
    0.7280   -0.6980    1.0700 H   0  0  0  0  0  0  0  0  0  0  0  0
   -9.1510    0.4170    0.6810 H   0  0  0  0  0  0  0  0  0  0  0  0
    4.1110   -4.5960   -0.0160 H   0  0  0  0  0  0  0  0  0  0  0  0
    6.9020    1.6660    0.2250 H   0  0  0  0  0  0  0  0  0  0  0  0
 15 16  2  0  0  0  0
  7 15  1  0  0  0  0
  7 26  1  0  0  0  0
 16 17  1  0  0  0  0
  7  8  2  0  0  0  0
 17 18  2  0  0  0  0
  8 18  1  0  0  0  0
  1  8  1  0  0  0  0
  4 18  1  0  0  0  0
  1  3  1  0  0  0  0
  5 27  2  0  0  0  0
  3  4  1  0  0  0  0
  4 22  1  0  0  0  0
  2 25  2  0  0  0  0
  2  3  1  0  0  0  0
  5 22  1  0  0  0  0
  5  6  1  0  0  0  0
  2 24  1  0  0  0  0
  6 19  2  0  0  0  0
 11 19  1  0  0  0  0
  6 14  1  0  0  0  0
 11 20  1  0  0  0  0
 11 12  2  0  0  0  0
 13 14  2  0  0  0  0
 10 20  2  0  0  0  0
 12 13  1  0  0  0  0
 12 21  1  0  0  0  0
  9 23  1  0  0  0  0
 10 21  1  0  0  0  0
  9 10  1  0  0  0  0
  1 28  1  0  0  0  0
  1 29  1  0  0  0  0
  3 30  1  0  0  0  0
  4 31  1  0  0  0  0
  9 32  1  0  0  0  0
  9 33  1  0  0  0  0
 13 34  1  0  0  0  0
 14 35  1  0  0  0  0
 15 36  1  0  0  0  0
 16 37  1  0  0  0  0
 17 38  1  0  0  0  0
 19 39  1  0  0  0  0
 21 40  1  0  0  0  0
 22 41  1  0  0  0  0
 23 42  1  0  0  0  0
 24 43  1  0  0  0  0
 26 44  1  0  0  0  0
M  END
> <OPENEYE_ISO_SMILES>
c1cc2c(c(c1)O)C[C@@H]([C@H]2NC(=O)c3ccc4c(c3)nc([nH]4)CO)C(=O)O

> <OPENEYE_INCHI>
InChI=1S/C19H17N3O5/c23-8-16-20-13-5-4-9(6-14(13)21-16)18(25)22-17-10-2-1-3-15(24)11(10)7-12(17)19(26)27/h1-6,12,17,23-24H,7-8H2,(H,20,21)(H,22,25)(H,26,27)/t12-,17-/m0/s1

> <OPENEYE_INCHIKEY>
CXHYRAPCOSLYMC-SJCJKPOMSA-N

> <FORMULA>
C19H17N3O5

$$$$
