@<TRIPOS>MOLECULE
/home/pku/3cl/gett_pdb/5RS9/5RS9_mol2/ligand/5RS9_W4V.pdb
 22 24 0 0 0
SMALL
GASTEIGER

@<TRIPOS>ATOM
      1  N12      -47.5110  -29.2890    4.5250 N.2   201  W4V201     -0.0881
      2  C02      -49.0330  -29.3380    6.4350 C.3   201  W4V201      0.2362
      3  C03      -50.3340  -29.4490    6.7820 C.2   201  W4V201      0.0278
      4  C04      -50.9940  -29.4860    8.1670 C.3   201  W4V201     -0.0231
      5  C05      -52.3370  -30.0460    7.8900 C.3   201  W4V201     -0.0423
      6  C06      -52.6130  -29.6170    6.4920 C.3   201  W4V201      0.0057
      7  C07      -51.2920  -29.5420    5.8130 C.2   201  W4V201      0.1232
      8  C09      -49.6720  -29.4750    4.1870 C.cat 201  W4V201      0.4374
      9  C11      -47.7260  -29.3380    3.2210 C.2   201  W4V201      0.2160
     10  N01      -48.0120  -29.2280    7.4620 N.3   201  W4V201     -0.2881
     11  N08      -51.0010  -29.5520    4.5210 N.2   201  W4V201     -0.0765
     12  N10      -49.0570  -29.4360    2.9860 N.pl3 201  W4V201     -0.0243
     13  N13      -48.7310  -29.3300    5.1290 N.pl3 201  W4V201     -0.0686
     14 H042      -51.0670  -28.5910    8.5340 H     201  W4V201      0.0313
     15 H041      -50.4990  -30.0680    8.7650 H     201  W4V201      0.0313
     16 H051      -52.3210  -31.0140    7.9520 H     201  W4V201      0.0272
     17 H052      -52.9940  -29.6700    8.4970 H     201  W4V201      0.0272
     18 H061      -53.1780  -30.2700    6.0490 H     201  W4V201      0.0342
     19 H062      -53.0380  -28.7450    6.4900 H     201  W4V201      0.0342
     20 H111      -47.0670  -29.2930    2.5660 H     201  W4V201      0.1250
     21 H012      -47.2540  -28.8670    7.2780 H     201  W4V201      0.1220
     22 H011      -48.1660  -29.5240    8.2550 H     201  W4V201      0.1220
@<TRIPOS>BOND
     1    20     9    1
     2    12     9    1
     3    12     8    1
     4     9     1    2
     5     8    11    2
     6     8    13    1
     7    11     7    1
     8     1    13    1
     9    13     2    1
    10     7     6    1
    11     7     3    2
    12    18     6    1
    13     2     3    1
    14     2    10    1
    15    19     6    1
    16     6     5    1
    17     3     4    1
    18    21    10    1
    19    10    22    1
    20     5    16    1
    21     5     4    1
    22     5    17    1
    23     4    14    1
    24     4    15    1
