4B0
  -OEChem-02242320003D

 24 25  0     0  0  0  0  0  0999 V2000
    6.2780   -1.0300   -1.7350 O   0  0  0  0  0  0  0  0  0  0  0  0
   -3.1650    0.8960   -0.3000 Br  0  0  0  0  0  0  0  0  0  0  0  0
   -0.5140    2.7840   -0.0450 Br  0  0  0  0  0  0  0  0  0  0  0  0
   -2.9190   -2.3340   -0.0860 Br  0  0  0  0  0  0  0  0  0  0  0  0
    2.4290    1.4440    0.4250 Br  0  0  0  0  0  0  0  0  0  0  0  0
    5.6410   -1.0780   -0.4570 C   0  0  0  0  0  0  0  0  0  0  0  0
    4.1720   -1.4680   -0.6340 C   0  0  0  0  0  0  0  0  0  0  0  0
    3.4890   -1.5200    0.7340 C   0  0  0  0  0  0  0  0  0  0  0  0
    0.2810   -3.1370    0.3900 N   0  0  0  0  0  0  0  0  0  0  0  0
    1.5540   -3.1930    0.5650 N   0  0  0  0  0  0  0  0  0  0  0  0
   -1.4720    0.1010   -0.0270 C   0  0  0  0  0  0  0  0  0  0  0  0
   -0.3440    0.9050    0.0820 C   0  0  0  0  0  0  0  0  0  0  0  0
   -1.3710   -1.2580    0.0630 C   0  0  0  0  0  0  0  0  0  0  0  0
    0.8990    0.3420    0.2810 C   0  0  0  0  0  0  0  0  0  0  0  0
   -0.1190   -1.8550    0.2660 C   0  0  0  0  0  0  0  0  0  0  0  0
    1.0220   -1.0410    0.3740 C   0  0  0  0  0  0  0  0  0  0  0  0
    2.0830   -1.8940    0.5640 N   0  0  0  0  0  0  0  0  0  0  0  0
    7.2140   -0.7880   -1.6990 H   0  0  0  0  0  0  0  0  0  0  0  0
    6.1400   -1.8160    0.1700 H   0  0  0  0  0  0  0  0  0  0  0  0
    5.7010   -0.0980    0.0160 H   0  0  0  0  0  0  0  0  0  0  0  0
    3.6730   -0.7300   -1.2620 H   0  0  0  0  0  0  0  0  0  0  0  0
    4.1110   -2.4480   -1.1080 H   0  0  0  0  0  0  0  0  0  0  0  0
    3.9890   -2.2580    1.3620 H   0  0  0  0  0  0  0  0  0  0  0  0
    3.5500   -0.5400    1.2070 H   0  0  0  0  0  0  0  0  0  0  0  0
  1  6  1  0  0  0  0
  2 11  1  0  0  0  0
  3 12  1  0  0  0  0
  4 13  1  0  0  0  0
  5 14  1  0  0  0  0
  6  7  1  0  0  0  0
  7  8  1  0  0  0  0
  8 17  1  0  0  0  0
  9 10  2  0  0  0  0
  9 15  1  0  0  0  0
 10 17  1  0  0  0  0
 11 12  2  0  0  0  0
 11 13  1  0  0  0  0
 12 14  1  0  0  0  0
 13 15  2  0  0  0  0
 14 16  2  0  0  0  0
 15 16  1  0  0  0  0
 16 17  1  0  0  0  0
  1 18  1  0  0  0  0
  6 19  1  0  0  0  0
  6 20  1  0  0  0  0
  7 21  1  0  0  0  0
  7 22  1  0  0  0  0
  8 23  1  0  0  0  0
  8 24  1  0  0  0  0
M  END
> <OPENEYE_ISO_SMILES>
C(Cn1c2c(c(c(c(c2Br)Br)Br)Br)nn1)CO

> <OPENEYE_INCHI>
InChI=1S/C9H7Br4N3O/c10-4-5(11)7(13)9-8(6(4)12)14-15-16(9)2-1-3-17/h17H,1-3H2

> <OPENEYE_INCHIKEY>
VXLNELSTYPRMEW-UHFFFAOYSA-N

> <FORMULA>
C9H7Br4N3O

$$$$
