WUV
  -OEChem-02242320043D

 31 32  0     1  0  0  0  0  0999 V2000
    3.3840   -0.5830    0.5670 C   0  0  0  0  0  0  0  0  0  0  0  0
   -1.2190   -0.0310    0.8980 C   0  0  0  0  0  0  0  0  0  0  0  0
   -4.5400   -0.2370   -1.7110 C   0  0  0  0  0  0  0  0  0  0  0  0
   -3.3540   -0.1540   -0.7860 C   0  0  0  0  0  0  0  0  0  0  0  0
   -2.1360    0.1790   -1.2630 C   0  0  0  0  0  0  0  0  0  0  0  0
   -1.0660    0.2330   -0.4120 N   0  0  0  0  0  0  0  0  0  0  0  0
    0.2590    0.5820   -0.9320 C   0  0  1  0  0  0  0  0  0  0  0  0
    0.7260    1.9180   -0.3220 C   0  0  0  0  0  0  0  0  0  0  0  0
    2.0550    1.5660    0.3880 C   0  0  2  0  0  0  0  0  0  0  0  0
    3.0310    2.5900    0.1850 O   0  0  0  0  0  0  0  0  0  0  0  0
    2.4710    0.2560   -0.3290 C   0  0  2  0  0  0  0  0  0  0  0  0
    3.9690   -2.0320   -0.3550 S   0  0  0  0  0  0  0  0  0  0  0  0
    1.2140   -0.4230   -0.5510 O   0  0  0  0  0  0  0  0  0  0  0  0
   -0.2550    0.0280    1.6380 O   0  0  0  0  0  0  0  0  0  0  0  0
   -2.4240   -0.3540    1.4030 N   0  0  0  0  0  0  0  0  0  0  0  0
   -3.5020   -0.4240    0.5960 C   0  0  0  0  0  0  0  0  0  0  0  0
   -4.5910   -0.7260    1.0500 O   0  0  0  0  0  0  0  0  0  0  0  0
    4.2380    0.0180    0.8790 H   0  0  0  0  0  0  0  0  0  0  0  0
    2.8290   -0.9110    1.4460 H   0  0  0  0  0  0  0  0  0  0  0  0
   -5.4260   -0.5180   -1.1420 H   0  0  0  0  0  0  0  0  0  0  0  0
   -4.7030    0.7330   -2.1820 H   0  0  0  0  0  0  0  0  0  0  0  0
   -4.3500   -0.9860   -2.4800 H   0  0  0  0  0  0  0  0  0  0  0  0
   -2.0030    0.3880   -2.3150 H   0  0  0  0  0  0  0  0  0  0  0  0
    0.2200    0.6640   -2.0190 H   0  0  0  0  0  0  0  0  0  0  0  0
    0.8960    2.6560   -1.1060 H   0  0  0  0  0  0  0  0  0  0  0  0
   -0.0070    2.2860    0.3950 H   0  0  0  0  0  0  0  0  0  0  0  0
    1.8930    1.3910    1.4520 H   0  0  0  0  0  0  0  0  0  0  0  0
    2.8160    3.4290    0.6150 H   0  0  0  0  0  0  0  0  0  0  0  0
    2.9620    0.4770   -1.2770 H   0  0  0  0  0  0  0  0  0  0  0  0
    4.7470   -2.6660    0.5410 H   0  0  0  0  0  0  0  0  0  0  0  0
   -2.5170   -0.5380    2.3510 H   0  0  0  0  0  0  0  0  0  0  0  0
  1 12  1  0  0  0  0
  1 11  1  0  0  0  0
  9 11  1  0  0  0  0
  9 10  1  0  0  0  0
  8  9  1  0  0  0  0
 11 13  1  0  0  0  0
  7  8  1  0  0  0  0
  7 13  1  0  0  0  0
  3  4  1  0  0  0  0
  4  5  2  0  0  0  0
  5  6  1  0  0  0  0
  6  7  1  0  0  0  0
  4 16  1  0  0  0  0
  2  6  1  0  0  0  0
 16 17  2  0  0  0  0
 15 16  1  0  0  0  0
  2 15  1  0  0  0  0
  2 14  2  0  0  0  0
  1 18  1  0  0  0  0
  1 19  1  0  0  0  0
  3 20  1  0  0  0  0
  3 21  1  0  0  0  0
  3 22  1  0  0  0  0
  5 23  1  0  0  0  0
  7 24  1  0  0  0  0
  8 25  1  0  0  0  0
  8 26  1  0  0  0  0
  9 27  1  0  0  0  0
 10 28  1  0  0  0  0
 11 29  1  0  0  0  0
 12 30  1  0  0  0  0
 15 31  1  0  0  0  0
M  END
> <OPENEYE_ISO_SMILES>
Cc1cn(c(=O)[nH]c1=O)[C@H]2C[C@@H]([C@H](O2)CS)O

> <OPENEYE_INCHI>
InChI=1S/C10H14N2O4S/c1-5-3-12(10(15)11-9(5)14)8-2-6(13)7(4-17)16-8/h3,6-8,13,17H,2,4H2,1H3,(H,11,14,15)/t6-,7+,8+/m0/s1

> <OPENEYE_INCHIKEY>
CPEAGKYEYPXTSP-XLPZGREQSA-N

> <FORMULA>
C10H14N2O4S

$$$$
