LW1
  -OEChem-02242320033D

 11 11  0     0  0  0  0  0  0999 V2000
    1.8080    0.5320    0.0000 C   0  0  0  0  0  0  0  0  0  0  0  0
    0.4730    0.0720   -0.0010 C   0  0  0  0  0  0  0  0  0  0  0  0
    0.0840   -1.2430    0.0020 C   0  0  0  0  0  0  0  0  0  0  0  0
   -1.2790   -1.4050    0.0010 C   0  0  0  0  0  0  0  0  0  0  0  0
   -1.9870   -0.2670   -0.0030 C   0  0  0  0  0  0  0  0  0  0  0  0
    2.7250   -0.2640   -0.0010 O   0  0  0  0  0  0  0  0  0  0  0  0
   -0.9590    1.0940    0.0010 S   0  0  0  0  0  0  0  0  0  0  0  0
    2.0140    1.5920   -0.0020 H   0  0  0  0  0  0  0  0  0  0  0  0
    0.7800   -2.0690    0.0040 H   0  0  0  0  0  0  0  0  0  0  0  0
   -1.7470   -2.3780    0.0020 H   0  0  0  0  0  0  0  0  0  0  0  0
   -3.0660   -0.2180   -0.0050 H   0  0  0  0  0  0  0  0  0  0  0  0
  1  6  2  0  0  0  0
  1  2  1  0  0  0  0
  2  3  2  0  0  0  0
  2  7  1  0  0  0  0
  3  4  1  0  0  0  0
  5  7  1  0  0  0  0
  4  5  2  0  0  0  0
  1  8  1  0  0  0  0
  3  9  1  0  0  0  0
  4 10  1  0  0  0  0
  5 11  1  0  0  0  0
M  END
> <OPENEYE_ISO_SMILES>
c1cc(sc1)C=O

> <OPENEYE_INCHI>
InChI=1S/C5H4OS/c6-4-5-2-1-3-7-5/h1-4H

> <OPENEYE_INCHIKEY>
CNUDBTRUORMMPA-UHFFFAOYSA-N

> <FORMULA>
C5H4OS

$$$$
