@<TRIPOS>MOLECULE
/home/pku/3cl/gett_pdb/7M8P/7M8P_mol2/ligand/7M8P_YSJ.pdb
 55 59 0 0 0
SMALL
GASTEIGER

@<TRIPOS>ATOM
      1  C10      -25.6120   -4.8590  -23.3570 C.ar  401  YSJ401      0.3267
      2  C11      -21.1510   -4.8410  -25.8700 C.ar  401  YSJ401      0.0212
      3  C12      -18.8350   -5.0360  -26.4300 C.ar  401  YSJ401      0.0675
      4  C14      -16.2350   -5.3070  -25.6820 C.ar  401  YSJ401      0.0277
      5  C15      -17.0380   -6.4390  -25.7780 C.ar  401  YSJ401     -0.0416
      6  C16      -18.3730   -6.3090  -26.1550 C.ar  401  YSJ401     -0.0348
      7  C18      -21.7570   -5.0090  -30.8720 C.ar  401  YSJ401     -0.0091
      8  C19      -22.0510   -4.7900  -32.2050 C.ar  401  YSJ401      0.1580
      9  C20      -20.3490   -6.2590  -33.1460 C.3   401  YSJ401      0.1161
     10  C22      -19.6940   -6.0320  -35.5800 C.ar  401  YSJ401      0.0474
     11  C23      -19.4860   -6.5360  -36.8620 C.ar  401  YSJ401     -0.0430
     12  C24      -19.7020   -7.8850  -37.1100 C.ar  401  YSJ401     -0.0604
     13  C26      -20.3280   -8.2080  -34.7990 C.ar  401  YSJ401     -0.0540
     14  C27      -22.7420   -3.6260  -32.5570 C.ar  401  YSJ401      0.1830
     15  C1       -23.1080   -2.6920  -31.6080 C.ar  401  YSJ401      0.0803
     16  C13      -17.9910   -3.9300  -26.3170 C.ar  401  YSJ401      0.0514
     17  C17      -20.4670   -4.5820  -28.1000 C.ar  401  YSJ401      0.2635
     18  C2       -22.7980   -2.9130  -30.2750 C.ar  401  YSJ401     -0.0325
     19  C21      -20.1030   -6.8580  -34.5400 C.ar  401  YSJ401      0.0079
     20  C25      -20.1190   -8.7190  -36.0800 C.ar  401  YSJ401     -0.0613
     21  C3       -22.1280   -4.0750  -29.9200 C.ar  401  YSJ401     -0.0077
     22  C4       -21.7810   -4.3420  -28.4740 C.ar  401  YSJ401      0.0477
     23  C5       -22.7970   -4.3730  -27.5250 C.ar  401  YSJ401     -0.0395
     24  C6       -22.4750   -4.6140  -26.2000 C.ar  401  YSJ401      0.0060
     25  C7       -23.5810   -4.6650  -25.1420 C.ar  401  YSJ401      0.0640
     26  C8       -23.4560   -4.1080  -23.8690 C.ar  401  YSJ401      0.2617
     27  C9       -24.7620   -5.3270  -25.4590 C.ar  401  YSJ401      0.0193
     28  F1       -23.0850   -3.3330  -33.8350 F     401  YSJ401     -0.2001
     29  N1       -24.4760   -4.2150  -23.0080 N.ar  401  YSJ401     -0.2746
     30  N2       -25.7510   -5.4060  -24.5670 N.ar  401  YSJ401     -0.3137
     31  N3       -20.2020   -4.8190  -26.8130 N.ar  401  YSJ401     -0.2816
     32  N4       -16.7100   -4.0800  -25.9470 N.ar  401  YSJ401     -0.2612
     33  O1       -22.2930   -3.4440  -23.4760 O.2   401  YSJ401     -0.2671
     34  O2       -26.6760   -4.9710  -22.4530 O.2   401  YSJ401     -0.2467
     35  O3       -19.4110   -4.5790  -29.0350 O.2   401  YSJ401     -0.2667
     36  O4       -21.6740   -5.7530  -33.1560 O.3   401  YSJ401     -0.4844
     37 CL1       -23.9830   -1.2380  -32.1790 Cl    401  YSJ401     -0.0804
     38 CL2       -19.4110   -4.3050  -35.2400 Cl    401  YSJ401     -0.0831
     39  H6       -20.8800   -5.0390  -24.8400 H     401  YSJ401      0.0820
     40  H8       -15.1990   -5.4190  -25.3860 H     401  YSJ401      0.0829
     41  H9       -16.6270   -7.4170  -25.5610 H     401  YSJ401      0.0633
     42  H10      -19.0240   -7.1720  -26.2300 H     401  YSJ401      0.0639
     43  H11      -21.2370   -5.9110  -30.5730 H     401  YSJ401      0.0661
     44  H13      -19.6430   -5.4580  -32.9520 H     401  YSJ401      0.0748
     45  H12      -20.2460   -7.0250  -32.3850 H     401  YSJ401      0.0748
     46  H14      -19.1580   -5.8810  -37.6590 H     401  YSJ401      0.0632
     47  H15      -19.5450   -8.2860  -38.1040 H     401  YSJ401      0.0618
     48  H17      -20.6650   -8.8620  -34.0040 H     401  YSJ401      0.0622
     49  H7       -18.3740   -2.9400  -26.5310 H     401  YSJ401      0.0851
     50  H1       -23.0750   -2.1880  -29.5200 H     401  YSJ401      0.0639
     51  H16      -20.2840   -9.7710  -36.2740 H     401  YSJ401      0.0618
     52  H2       -23.8270   -4.2110  -27.8190 H     401  YSJ401      0.0632
     53  H4       -24.8800   -5.7800  -26.4350 H     401  YSJ401      0.0816
     54  H3       -24.3960   -3.8150  -22.0940 H     401  YSJ401      0.1734
     55  H5       -26.6010   -5.8780  -24.8060 H     401  YSJ401      0.1698
@<TRIPOS>BOND
     1    47    12    1
     2    46    11    1
     3    12    11   ar
     4    12    20   ar
     5    11    10   ar
     6    51    20    1
     7    20    13   ar
     8    10    38    1
     9    10    19   ar
    10    13    19   ar
    11    13    48    1
    12    19     9    1
    13    28    14    1
    14    36     9    1
    15    36     8    1
    16     9    44    1
    17     9    45    1
    18    14     8   ar
    19    14    15   ar
    20     8     7   ar
    21    37    15    1
    22    15    18   ar
    23     7    43    1
    24     7    21   ar
    25    18    21   ar
    26    18    50    1
    27    21    22    1
    28    35    17    2
    29    22    17   ar
    30    22    23   ar
    31    17    31   ar
    32    52    23    1
    33    23    24   ar
    34    31     3    1
    35    31     2   ar
    36    49    16    1
    37    53    27    1
    38     3    16   ar
    39     3     6   ar
    40    16    32   ar
    41    42     6    1
    42    24     2   ar
    43    24    25    1
    44     6     5   ar
    45    32     4   ar
    46     2    39    1
    47     5     4   ar
    48     5    41    1
    49     4    40    1
    50    27    25   ar
    51    27    30   ar
    52    25    26   ar
    53    55    30    1
    54    30     1   ar
    55    26    33    2
    56    26    29   ar
    57     1    29   ar
    58     1    34    2
    59    29    54    1
