@<TRIPOS>MOLECULE
/home/pku/3cl/gett_pdb/7EN8/7EN8_mol2/ligand/7EN8_J7R.pdb
 34 37 0 0 0
SMALL
GASTEIGER

@<TRIPOS>ATOM
      1  N1       -28.4340  -24.7540   31.2970 N.am  401  J7R401     -0.1997
      2  N3       -24.7640  -26.8440   30.7930 N.pl3 401  J7R401     -0.2358
      3  C4       -26.6470  -25.3600   33.6600 C.ar  401  J7R401      0.0127
      4  C5       -25.9970  -25.9670   34.7060 C.ar  401  J7R401      0.0364
      5  C6       -24.9490  -26.8280   34.5210 C.ar  401  J7R401      0.0321
      6  C7       -24.5480  -27.1010   33.2410 C.ar  401  J7R401      0.1582
      7  C8       -25.1830  -26.5190   32.1550 C.ar  401  J7R401      0.0921
      8  C10      -25.6330  -29.1130   30.5310 C.3   401  J7R401      0.0233
      9  C13      -24.2510  -28.1120   28.0030 C.3   401  J7R401      0.0234
     10  C15      -25.8980  -25.5690   26.9430 C.2   401  J7R401      0.2663
     11  C17      -24.9270  -23.2110   26.9720 C.ar  401  J7R401      0.1034
     12  C20      -28.7390  -21.5280   26.6900 C.ar  401  J7R401      0.0015
     13  C21      -29.8700  -22.3370   26.6320 C.ar  401  J7R401      0.0000
     14  C22      -29.7470  -23.7350   26.6490 C.ar  401  J7R401      0.0000
     15  C24      -27.3310  -23.4950   26.8130 C.ar  401  J7R401      0.0074
     16  C1       -29.0740  -24.0390   30.2160 C.3   401  J7R401      0.1388
     17  C11      -24.9870  -30.0740   29.5350 C.3   401  J7R401      0.0019
     18  C12      -23.9080  -29.4540   28.6500 C.3   401  J7R401      0.0019
     19  C14      -25.5560  -27.5260   28.5260 C.3   401  J7R401      0.1154
     20  C16      -26.0240  -24.0560   26.8910 C.ar  401  J7R401      0.0742
     21  C18      -26.2660  -21.3310   26.8490 C.ar  401  J7R401      0.0988
     22  C19      -27.4450  -22.1310   26.7830 C.ar  401  J7R401      0.0193
     23  C2       -26.9970  -24.9300   31.2680 C.2   401  J7R401      0.2662
     24  C23      -28.4920  -24.3300   26.7520 C.ar  401  J7R401      0.0002
     25  C3       -26.2530  -25.6460   32.3810 C.ar  401  J7R401      0.0720
     26  C9       -25.7440  -27.6630   30.0430 C.3   401  J7R401      0.1124
     27  N2       -23.4420  -28.0000   33.0880 N.pl3 401  J7R401      0.0590
     28  N4       -25.6500  -26.0990   28.2610 N.am  401  J7R401     -0.2016
     29  N5       -25.0570  -21.8790   26.9420 N.ar  401  J7R401     -0.2422
     30  O1       -26.3510  -24.4850   30.3810 O.2   401  J7R401     -0.2683
     31  O2       -23.0450  -28.5580   34.0400 O.2   401  J7R401     -0.1261
     32  O3       -22.8220  -28.1320   31.8360 O.2   401  J7R401     -0.1261
     33  O4       -25.9980  -26.2530   25.9660 O.2   401  J7R401     -0.2683
     34 BR1       -26.5750  -25.5710   36.4850 Br    401  J7R401     -0.0489
@<TRIPOS>BOND
     1    33    10    2
     2    13    14   ar
     3    13    12   ar
     4    14    24   ar
     5    12    22   ar
     6    24    15   ar
     7    22    15   ar
     8    22    21   ar
     9    15    20   ar
    10    21    29   ar
    11    20    10    1
    12    20    11   ar
    13    29    11   ar
    14    10    28   am
    15     9    19    1
    16     9    18    1
    17    28    19    1
    18    19    26    1
    19    18    17    1
    20    17     8    1
    21    26     8    1
    22    26     2    1
    23    16     1    1
    24    30    23    2
    25     2     7    1
    26    23     1   am
    27    23    25    1
    28    32    27    2
    29     7    25   ar
    30     7     6   ar
    31    25     3   ar
    32    27     6    1
    33    27    31    2
    34     6     5   ar
    35     3     4   ar
    36     5     4   ar
    37     4    34    1
