N38
  -OEChem-02242320033D

 78 80  0     1  0  0  0  0  0999 V2000
   -8.8360    1.0020   -0.3750 C   0  0  0  0  0  0  0  0  0  0  0  0
   -7.5120   -0.8890    0.1980 C   0  0  0  0  0  0  0  0  0  0  0  0
   -7.3530   -2.1690    0.7090 C   0  0  0  0  0  0  0  0  0  0  0  0
   -6.1010   -2.7510    0.7360 C   0  0  0  0  0  0  0  0  0  0  0  0
   -5.0030   -2.0570    0.2520 C   0  0  0  0  0  0  0  0  0  0  0  0
   -2.6840   -1.8570   -0.2360 C   0  0  0  0  0  0  0  0  0  0  0  0
   -1.3870   -2.6610   -0.1230 C   0  0  0  0  0  0  0  0  0  0  0  0
   -0.2240   -1.8340   -0.6750 C   0  0  0  0  0  0  0  0  0  0  0  0
    2.7740   -0.5110   -0.5100 C   0  0  1  0  0  0  0  0  0  0  0  0
    4.2760   -0.2350   -0.5910 C   0  0  0  0  0  0  0  0  0  0  0  0
    5.0350   -1.3090    0.1910 C   0  0  0  0  0  0  0  0  0  0  0  0
    4.6880   -1.1990    1.6770 C   0  0  0  0  0  0  0  0  0  0  0  0
    5.4470   -2.2730    2.4590 C   0  0  0  0  0  0  0  0  0  0  0  0
    6.9520   -2.0720    2.2710 C   0  0  0  0  0  0  0  0  0  0  0  0
    7.3000   -2.1820    0.7850 C   0  0  0  0  0  0  0  0  0  0  0  0
    6.5410   -1.1080    0.0030 C   0  0  0  0  0  0  0  0  0  0  0  0
    2.0210    0.5960   -1.2010 C   0  0  0  0  0  0  0  0  0  0  0  0
    1.4100    2.9430   -1.4400 C   0  0  1  0  0  0  0  0  0  0  0  0
    1.1220    4.0650   -0.4410 C   0  0  0  0  0  0  0  0  0  0  0  0
    0.1970    3.5420    0.6600 C   0  0  1  0  0  0  0  0  0  0  0  0
   -0.0920    4.6300    1.6700 C   0  0  0  0  0  0  0  0  0  0  0  0
   -2.1330    3.6140    1.2260 C   0  0  0  0  0  0  0  0  0  0  0  0
   -1.1910    3.1870    0.0780 C   0  0  0  0  0  0  0  0  0  0  0  0
    2.2540    3.4910   -2.5920 C   0  0  0  0  0  0  0  0  0  0  0  0
   -5.1610   -0.7780   -0.2610 C   0  0  0  0  0  0  0  0  0  0  0  0
   -6.4130   -0.1950   -0.2870 C   0  0  0  0  0  0  0  0  0  0  0  0
    2.4760   -1.7870   -1.1650 N   0  0  0  0  0  0  0  0  0  0  0  0
    2.1420    1.8660   -0.7680 N   0  0  0  0  0  0  0  0  0  0  0  0
   -1.4030    4.6520    1.9640 N   0  0  0  0  0  0  0  0  0  0  0  0
   -8.7460   -0.3180    0.1660 O   0  0  0  0  0  0  0  0  0  0  0  0
   -3.7700   -2.6300    0.2790 O   0  0  0  0  0  0  0  0  0  0  0  0
    0.7390    5.3750    2.1460 O   0  0  0  0  0  0  0  0  0  0  0  0
    3.4340    4.1050   -2.0690 O   0  0  0  0  0  0  0  0  0  0  0  0
    1.3060    0.3440   -2.1480 O   0  0  0  0  0  0  0  0  0  0  0  0
    1.6840   -2.9470    0.8230 O   0  0  0  0  0  0  0  0  0  0  0  0
    1.2920   -3.8970   -1.4270 O   0  0  0  0  0  0  0  0  0  0  0  0
    1.3140   -2.7880   -0.5400 S   0  0  0  0  0  0  0  0  0  0  0  0
   -9.8720    1.3380   -0.3410 H   0  0  0  0  0  0  0  0  0  0  0  0
   -8.2150    1.6780    0.2130 H   0  0  0  0  0  0  0  0  0  0  0  0
   -8.4890    0.9960   -1.4080 H   0  0  0  0  0  0  0  0  0  0  0  0
   -8.2080   -2.7090    1.0870 H   0  0  0  0  0  0  0  0  0  0  0  0
   -5.9770   -3.7470    1.1350 H   0  0  0  0  0  0  0  0  0  0  0  0
   -2.5900   -0.9350    0.3360 H   0  0  0  0  0  0  0  0  0  0  0  0
   -2.8720   -1.6180   -1.2830 H   0  0  0  0  0  0  0  0  0  0  0  0
   -1.1980   -2.9010    0.9240 H   0  0  0  0  0  0  0  0  0  0  0  0
   -1.4800   -3.5840   -0.6950 H   0  0  0  0  0  0  0  0  0  0  0  0
   -0.4130   -1.5950   -1.7210 H   0  0  0  0  0  0  0  0  0  0  0  0
   -0.1310   -0.9120   -0.1020 H   0  0  0  0  0  0  0  0  0  0  0  0
    2.4690   -0.5600    0.5360 H   0  0  0  0  0  0  0  0  0  0  0  0
    4.5930   -0.2520   -1.6330 H   0  0  0  0  0  0  0  0  0  0  0  0
    4.4890    0.7450   -0.1630 H   0  0  0  0  0  0  0  0  0  0  0  0
    4.7520   -2.2950   -0.1760 H   0  0  0  0  0  0  0  0  0  0  0  0
    4.9720   -0.2130    2.0450 H   0  0  0  0  0  0  0  0  0  0  0  0
    3.6160   -1.3420    1.8110 H   0  0  0  0  0  0  0  0  0  0  0  0
    5.2000   -2.1950    3.5180 H   0  0  0  0  0  0  0  0  0  0  0  0
    5.1630   -3.2590    2.0910 H   0  0  0  0  0  0  0  0  0  0  0  0
    7.2360   -1.0860    2.6390 H   0  0  0  0  0  0  0  0  0  0  0  0
    7.4930   -2.8370    2.8280 H   0  0  0  0  0  0  0  0  0  0  0  0
    8.3720   -2.0390    0.6510 H   0  0  0  0  0  0  0  0  0  0  0  0
    7.0160   -3.1680    0.4170 H   0  0  0  0  0  0  0  0  0  0  0  0
    6.7880   -1.1860   -1.0560 H   0  0  0  0  0  0  0  0  0  0  0  0
    6.8250   -0.1220    0.3710 H   0  0  0  0  0  0  0  0  0  0  0  0
    0.4700    2.5540   -1.8310 H   0  0  0  0  0  0  0  0  0  0  0  0
    2.0570    4.4060    0.0020 H   0  0  0  0  0  0  0  0  0  0  0  0
    0.6390    4.8950   -0.9560 H   0  0  0  0  0  0  0  0  0  0  0  0
    0.6400    2.6730    1.1480 H   0  0  0  0  0  0  0  0  0  0  0  0
   -3.0600    4.0200    0.8210 H   0  0  0  0  0  0  0  0  0  0  0  0
   -2.3450    2.7650    1.8750 H   0  0  0  0  0  0  0  0  0  0  0  0
   -1.3930    3.7600   -0.8260 H   0  0  0  0  0  0  0  0  0  0  0  0
   -1.2710    2.1170   -0.1140 H   0  0  0  0  0  0  0  0  0  0  0  0
    2.5350    2.6740   -3.2580 H   0  0  0  0  0  0  0  0  0  0  0  0
    1.6760    4.2290   -3.1470 H   0  0  0  0  0  0  0  0  0  0  0  0
   -4.3060   -0.2370   -0.6380 H   0  0  0  0  0  0  0  0  0  0  0  0
   -6.5370    0.8010   -0.6850 H   0  0  0  0  0  0  0  0  0  0  0  0
    2.9600   -2.0460   -1.9640 H   0  0  0  0  0  0  0  0  0  0  0  0
    2.7140    2.0680   -0.0100 H   0  0  0  0  0  0  0  0  0  0  0  0
   -1.8150    5.2730    2.5850 H   0  0  0  0  0  0  0  0  0  0  0  0
    4.0170    4.4750   -2.7450 H   0  0  0  0  0  0  0  0  0  0  0  0
 21 32  2  0  0  0  0
 21 29  1  0  0  0  0
 22 29  1  0  0  0  0
 20 21  1  0  0  0  0
 22 23  1  0  0  0  0
 20 23  1  0  0  0  0
 19 20  1  0  0  0  0
 18 19  1  0  0  0  0
 25 26  2  0  0  0  0
  2 26  1  0  0  0  0
 18 24  1  0  0  0  0
 18 28  1  0  0  0  0
  5 25  1  0  0  0  0
  2 30  1  0  0  0  0
  1 30  1  0  0  0  0
 24 33  1  0  0  0  0
  2  3  2  0  0  0  0
 36 37  2  0  0  0  0
  5 31  1  0  0  0  0
  4  5  2  0  0  0  0
 17 28  1  0  0  0  0
  6 31  1  0  0  0  0
  3  4  1  0  0  0  0
  6  7  1  0  0  0  0
  7  8  1  0  0  0  0
 35 37  2  0  0  0  0
 17 34  2  0  0  0  0
  9 17  1  0  0  0  0
  8 37  1  0  0  0  0
 27 37  1  0  0  0  0
  9 27  1  0  0  0  0
  9 10  1  0  0  0  0
 10 11  1  0  0  0  0
 11 12  1  0  0  0  0
 12 13  1  0  0  0  0
 11 16  1  0  0  0  0
 13 14  1  0  0  0  0
 15 16  1  0  0  0  0
 14 15  1  0  0  0  0
  1 38  1  0  0  0  0
  1 39  1  0  0  0  0
  1 40  1  0  0  0  0
  3 41  1  0  0  0  0
  4 42  1  0  0  0  0
  6 43  1  0  0  0  0
  6 44  1  0  0  0  0
  7 45  1  0  0  0  0
  7 46  1  0  0  0  0
  8 47  1  0  0  0  0
  8 48  1  0  0  0  0
  9 49  1  0  0  0  0
 10 50  1  0  0  0  0
 10 51  1  0  0  0  0
 11 52  1  0  0  0  0
 12 53  1  0  0  0  0
 12 54  1  0  0  0  0
 13 55  1  0  0  0  0
 13 56  1  0  0  0  0
 14 57  1  0  0  0  0
 14 58  1  0  0  0  0
 15 59  1  0  0  0  0
 15 60  1  0  0  0  0
 16 61  1  0  0  0  0
 16 62  1  0  0  0  0
 18 63  1  0  0  0  0
 19 64  1  0  0  0  0
 19 65  1  0  0  0  0
 20 66  1  0  0  0  0
 22 67  1  0  0  0  0
 22 68  1  0  0  0  0
 23 69  1  0  0  0  0
 23 70  1  0  0  0  0
 24 71  1  0  0  0  0
 24 72  1  0  0  0  0
 25 73  1  0  0  0  0
 26 74  1  0  0  0  0
 27 75  1  0  0  0  0
 28 76  1  0  0  0  0
 29 77  1  0  0  0  0
 33 78  1  0  0  0  0
M  END
> <OPENEYE_ISO_SMILES>
COc1ccc(cc1)OCCCS(=O)(=O)N[C@@H](CC2CCCCC2)C(=O)N[C@@H](C[C@@H]3CCNC3=O)CO

> <OPENEYE_INCHI>
InChI=1S/C26H41N3O7S/c1-35-22-8-10-23(11-9-22)36-14-5-15-37(33,34)29-24(16-19-6-3-2-4-7-19)26(32)28-21(18-30)17-20-12-13-27-25(20)31/h8-11,19-21,24,29-30H,2-7,12-18H2,1H3,(H,27,31)(H,28,32)/t20-,21-,24-/m0/s1

> <OPENEYE_INCHIKEY>
JSFDYEDTWWEPLF-HFMPRLQTSA-N

> <FORMULA>
C26H41N3O7S

$$$$
