VEY
  -OEChem-02242320043D

 56 57  0     1  0  0  0  0  0999 V2000
   -0.2150    0.2120    0.4270 N   0  0  0  0  0  0  0  0  0  0  0  0
   -0.6100    1.0380    1.4160 C   0  0  0  0  0  0  0  0  0  0  0  0
    0.3210    2.1110    1.9190 C   0  0  0  0  0  0  0  0  0  0  0  0
   -0.2600    2.7370    3.1880 C   0  0  0  0  0  0  0  0  0  0  0  0
    1.1480    0.0250    0.1750 C   0  0  0  0  0  0  0  0  0  0  0  0
    2.0180    1.1070    0.2120 C   0  0  0  0  0  0  0  0  0  0  0  0
    3.8440   -0.3470   -0.3240 C   0  0  0  0  0  0  0  0  0  0  0  0
    5.3130   -0.5490   -0.5940 C   0  0  0  0  0  0  0  0  0  0  0  0
    5.5800   -2.0280   -0.8820 C   0  0  0  0  0  0  0  0  0  0  0  0
   -2.1320    0.5080   -1.0330 C   0  0  0  0  0  0  0  0  0  0  0  0
   -3.9210    1.0470   -2.5110 C   0  0  0  0  0  0  0  0  0  0  0  0
   -3.0990    0.0900   -1.9350 C   0  0  0  0  0  0  0  0  0  0  0  0
   -1.7150    0.9190    1.9010 O   0  0  0  0  0  0  0  0  0  0  0  0
    1.6350   -1.2450   -0.1080 C   0  0  0  0  0  0  0  0  0  0  0  0
    2.9820   -1.4270   -0.3560 C   0  0  0  0  0  0  0  0  0  0  0  0
    5.7280    0.2890   -1.8050 C   0  0  0  0  0  0  0  0  0  0  0  0
    6.1220   -0.1130    0.6290 C   0  0  0  0  0  0  0  0  0  0  0  0
    3.3630    0.9180   -0.0370 C   0  0  0  0  0  0  0  0  0  0  0  0
   -1.2140   -0.4940   -0.3800 C   0  0  2  0  0  0  0  0  0  0  0  0
   -2.0180   -1.4110    0.5050 C   0  0  0  0  0  0  0  0  0  0  0  0
   -1.6190   -1.6830    1.6170 O   0  0  0  0  0  0  0  0  0  0  0  0
   -3.1810   -1.9280    0.0600 N   0  0  0  0  0  0  0  0  0  0  0  0
   -3.9630   -2.8190    0.9200 C   0  0  0  0  0  0  0  0  0  0  0  0
   -5.2270   -3.2610    0.1810 C   0  0  0  0  0  0  0  0  0  0  0  0
   -2.8160    2.7360   -1.3110 N   0  0  0  0  0  0  0  0  0  0  0  0
   -3.7500    2.3750   -2.1690 C   0  0  0  0  0  0  0  0  0  0  0  0
   -2.0160    1.8540   -0.7440 C   0  0  0  0  0  0  0  0  0  0  0  0
    1.2930    1.6720    2.1430 H   0  0  0  0  0  0  0  0  0  0  0  0
    0.4370    2.8790    1.1550 H   0  0  0  0  0  0  0  0  0  0  0  0
    0.4140    3.5130    3.5520 H   0  0  0  0  0  0  0  0  0  0  0  0
   -1.2320    3.1760    2.9640 H   0  0  0  0  0  0  0  0  0  0  0  0
   -0.3760    1.9680    3.9520 H   0  0  0  0  0  0  0  0  0  0  0  0
    1.6430    2.0950    0.4340 H   0  0  0  0  0  0  0  0  0  0  0  0
    5.0030   -2.3380   -1.7530 H   0  0  0  0  0  0  0  0  0  0  0  0
    6.6420   -2.1740   -1.0770 H   0  0  0  0  0  0  0  0  0  0  0  0
    5.2840   -2.6240   -0.0190 H   0  0  0  0  0  0  0  0  0  0  0  0
   -4.6840    0.7570   -3.2170 H   0  0  0  0  0  0  0  0  0  0  0  0
   -3.2090   -0.9550   -2.1830 H   0  0  0  0  0  0  0  0  0  0  0  0
    0.9620   -2.0890   -0.1330 H   0  0  0  0  0  0  0  0  0  0  0  0
    3.3610   -2.4140   -0.5750 H   0  0  0  0  0  0  0  0  0  0  0  0
    5.5380    1.3420   -1.6010 H   0  0  0  0  0  0  0  0  0  0  0  0
    6.7910    0.1430   -2.0010 H   0  0  0  0  0  0  0  0  0  0  0  0
    5.1520   -0.0220   -2.6770 H   0  0  0  0  0  0  0  0  0  0  0  0
    5.8260   -0.7100    1.4920 H   0  0  0  0  0  0  0  0  0  0  0  0
    7.1840   -0.2590    0.4330 H   0  0  0  0  0  0  0  0  0  0  0  0
    5.9320    0.9410    0.8340 H   0  0  0  0  0  0  0  0  0  0  0  0
    4.0400    1.7590   -0.0090 H   0  0  0  0  0  0  0  0  0  0  0  0
   -0.7100   -1.0800   -1.1490 H   0  0  0  0  0  0  0  0  0  0  0  0
   -3.4990   -1.7090   -0.8300 H   0  0  0  0  0  0  0  0  0  0  0  0
   -3.3650   -3.6940    1.1750 H   0  0  0  0  0  0  0  0  0  0  0  0
   -4.2410   -2.2910    1.8330 H   0  0  0  0  0  0  0  0  0  0  0  0
   -5.8090   -3.9240    0.8210 H   0  0  0  0  0  0  0  0  0  0  0  0
   -5.8240   -2.3860   -0.0730 H   0  0  0  0  0  0  0  0  0  0  0  0
   -4.9490   -3.7890   -0.7310 H   0  0  0  0  0  0  0  0  0  0  0  0
   -4.3860    3.1260   -2.6140 H   0  0  0  0  0  0  0  0  0  0  0  0
   -1.2630    2.1880   -0.0450 H   0  0  0  0  0  0  0  0  0  0  0  0
 25 26  2  0  0  0  0
 11 26  1  0  0  0  0
 25 27  1  0  0  0  0
 11 12  2  0  0  0  0
 10 27  2  0  0  0  0
 10 12  1  0  0  0  0
 10 19  1  0  0  0  0
  3  4  1  0  0  0  0
 20 21  2  0  0  0  0
  2 13  2  0  0  0  0
  2  3  1  0  0  0  0
  1  2  1  0  0  0  0
  1 19  1  0  0  0  0
 19 20  1  0  0  0  0
  1  5  1  0  0  0  0
 20 22  1  0  0  0  0
  5 14  2  0  0  0  0
 14 15  1  0  0  0  0
  5  6  1  0  0  0  0
  7 15  2  0  0  0  0
 22 23  1  0  0  0  0
 23 24  1  0  0  0  0
  8 16  1  0  0  0  0
  6 18  2  0  0  0  0
  7 18  1  0  0  0  0
  7  8  1  0  0  0  0
  8 17  1  0  0  0  0
  8  9  1  0  0  0  0
  3 28  1  0  0  0  0
  3 29  1  0  0  0  0
  4 30  1  0  0  0  0
  4 31  1  0  0  0  0
  4 32  1  0  0  0  0
  6 33  1  0  0  0  0
  9 34  1  0  0  0  0
  9 35  1  0  0  0  0
  9 36  1  0  0  0  0
 11 37  1  0  0  0  0
 12 38  1  0  0  0  0
 14 39  1  0  0  0  0
 15 40  1  0  0  0  0
 16 41  1  0  0  0  0
 16 42  1  0  0  0  0
 16 43  1  0  0  0  0
 17 44  1  0  0  0  0
 17 45  1  0  0  0  0
 17 46  1  0  0  0  0
 18 47  1  0  0  0  0
 19 48  1  0  0  0  0
 22 49  1  0  0  0  0
 23 50  1  0  0  0  0
 23 51  1  0  0  0  0
 24 52  1  0  0  0  0
 24 53  1  0  0  0  0
 24 54  1  0  0  0  0
 26 55  1  0  0  0  0
 27 56  1  0  0  0  0
M  END
> <OPENEYE_ISO_SMILES>
CCC(=O)N(c1ccc(cc1)C(C)(C)C)[C@H](c2cccnc2)C(=O)NCC

> <OPENEYE_INCHI>
InChI=1S/C22H29N3O2/c1-6-19(26)25(18-12-10-17(11-13-18)22(3,4)5)20(21(27)24-7-2)16-9-8-14-23-15-16/h8-15,20H,6-7H2,1-5H3,(H,24,27)/t20-/m1/s1

> <OPENEYE_INCHIKEY>
YWMXVWPDEYVMJP-HXUWFJFHSA-N

> <FORMULA>
C22H29N3O2

$$$$
