WPV
  -OEChem-02242320043D

 16 16  0     0  0  0  0  0  0999 V2000
   -1.0790   -2.1230    0.1250 N   0  0  0  0  0  0  0  0  0  0  0  0
    0.1500   -1.6480    0.1650 C   0  0  0  0  0  0  0  0  0  0  0  0
   -2.1180   -1.3430   -0.1010 C   0  0  0  0  0  0  0  0  0  0  0  0
    2.1600    0.3730    0.0260 Br  0  0  0  0  0  0  0  0  0  0  0  0
    0.3940   -0.3000   -0.0320 C   0  0  0  0  0  0  0  0  0  0  0  0
   -0.6750    0.5510   -0.2720 C   0  0  0  0  0  0  0  0  0  0  0  0
   -1.9520    0.0130   -0.3060 C   0  0  0  0  0  0  0  0  0  0  0  0
   -3.1460    0.8970   -0.5620 C   0  0  0  0  0  0  0  0  0  0  0  0
   -3.6620    1.4060    0.7150 N   0  0  0  0  0  0  0  0  0  0  0  0
    0.9760   -2.3170    0.3530 H   0  0  0  0  0  0  0  0  0  0  0  0
   -3.1100   -1.7700   -0.1260 H   0  0  0  0  0  0  0  0  0  0  0  0
   -0.5160    1.6080   -0.4290 H   0  0  0  0  0  0  0  0  0  0  0  0
   -2.8490    1.7350   -1.1940 H   0  0  0  0  0  0  0  0  0  0  0  0
   -3.9230    0.3210   -1.0650 H   0  0  0  0  0  0  0  0  0  0  0  0
   -4.4640    2.0020    0.5700 H   0  0  0  0  0  0  0  0  0  0  0  0
   -3.8850    0.6480    1.3430 H   0  0  0  0  0  0  0  0  0  0  0  0
  1  2  2  0  0  0  0
  2  5  1  0  0  0  0
  1  3  1  0  0  0  0
  4  5  1  0  0  0  0
  5  6  2  0  0  0  0
  3  7  2  0  0  0  0
  6  7  1  0  0  0  0
  7  8  1  0  0  0  0
  8  9  1  0  0  0  0
  2 10  1  0  0  0  0
  3 11  1  0  0  0  0
  6 12  1  0  0  0  0
  8 13  1  0  0  0  0
  8 14  1  0  0  0  0
  9 15  1  0  0  0  0
  9 16  1  0  0  0  0
M  END
> <OPENEYE_ISO_SMILES>
c1c(cncc1Br)CN

> <OPENEYE_INCHI>
InChI=1S/C6H7BrN2/c7-6-1-5(2-8)3-9-4-6/h1,3-4H,2,8H2

> <OPENEYE_INCHIKEY>
OQUHYNMITHDQLD-UHFFFAOYSA-N

> <FORMULA>
C6H7BrN2

$$$$
