K3S
  -OEChem-02242320033D

 22 22  0     0  0  0  0  0  0999 V2000
   -2.4090    0.2670    0.1060 N   0  0  0  0  0  0  0  0  0  0  0  0
   -1.0090   -1.3070    0.2300 N   0  0  0  0  0  0  0  0  0  0  0  0
   -1.2780    0.7070   -0.4930 C   0  0  0  0  0  0  0  0  0  0  0  0
   -3.6540    1.0260    0.2520 C   0  0  0  0  0  0  0  0  0  0  0  0
    1.9480    0.0640    0.1480 N   0  0  0  0  0  0  0  0  0  0  0  0
    4.2670    0.4680    0.8240 C   0  0  0  0  0  0  0  0  0  0  0  0
    3.3390    0.0700   -0.3250 C   0  0  0  0  0  0  0  0  0  0  0  0
    1.0260   -0.3140   -0.9310 C   0  0  0  0  0  0  0  0  0  0  0  0
   -0.3870   -0.3090   -0.4090 C   0  0  0  0  0  0  0  0  0  0  0  0
   -2.2050   -0.9340    0.5220 N   0  0  0  0  0  0  0  0  0  0  0  0
   -1.1190    1.6730   -0.9480 H   0  0  0  0  0  0  0  0  0  0  0  0
   -3.6320    1.5820    1.1900 H   0  0  0  0  0  0  0  0  0  0  0  0
   -3.7550    1.7220   -0.5810 H   0  0  0  0  0  0  0  0  0  0  0  0
   -4.5000    0.3390    0.2570 H   0  0  0  0  0  0  0  0  0  0  0  0
    1.6960    0.9590    0.5420 H   0  0  0  0  0  0  0  0  0  0  0  0
    5.2990    0.4720    0.4730 H   0  0  0  0  0  0  0  0  0  0  0  0
    4.0000    1.4640    1.1790 H   0  0  0  0  0  0  0  0  0  0  0  0
    4.1640   -0.2480    1.6400 H   0  0  0  0  0  0  0  0  0  0  0  0
    3.6060   -0.9250   -0.6790 H   0  0  0  0  0  0  0  0  0  0  0  0
    3.4420    0.7860   -1.1400 H   0  0  0  0  0  0  0  0  0  0  0  0
    1.1130    0.3990   -1.7500 H   0  0  0  0  0  0  0  0  0  0  0  0
    1.2770   -1.3130   -1.2890 H   0  0  0  0  0  0  0  0  0  0  0  0
  1  4  1  0  0  0  0
  1  3  1  0  0  0  0
  3  9  2  0  0  0  0
  1 10  1  0  0  0  0
  8  9  1  0  0  0  0
  2  9  1  0  0  0  0
  5  8  1  0  0  0  0
  6  7  1  0  0  0  0
  2 10  2  0  0  0  0
  5  7  1  0  0  0  0
  3 11  1  0  0  0  0
  4 12  1  0  0  0  0
  4 13  1  0  0  0  0
  4 14  1  0  0  0  0
  5 15  1  0  0  0  0
  6 16  1  0  0  0  0
  6 17  1  0  0  0  0
  6 18  1  0  0  0  0
  7 19  1  0  0  0  0
  7 20  1  0  0  0  0
  8 21  1  0  0  0  0
  8 22  1  0  0  0  0
M  END
> <OPENEYE_ISO_SMILES>
CCNCc1cn(nn1)C

> <OPENEYE_INCHI>
InChI=1S/C6H12N4/c1-3-7-4-6-5-10(2)9-8-6/h5,7H,3-4H2,1-2H3

> <OPENEYE_INCHIKEY>
LOLVREZTZUWBEQ-UHFFFAOYSA-N

> <FORMULA>
C6H12N4

$$$$
