@<TRIPOS>MOLECULE
/home/pku/3cl/gett_pdb/8E69/8E69_mol2/ligand/8E69_WIO.pdb
 34 35 0 0 0
SMALL
GASTEIGER

@<TRIPOS>ATOM
      1  C07      -13.6500   -2.4720   43.1120 C.3   401  WIO401      0.1761
      2  C08      -14.2390   -3.5520   44.0570 C.3   401  WIO401      0.0312
      3  C09      -14.4900   -3.0440   45.4940 C.3   401  WIO401      0.0022
      4  C10      -14.8630   -4.1820   46.4570 C.3   401  WIO401      0.0001
      5  C11      -13.2730   -2.2650   46.0480 C.3   401  WIO401      0.0001
      6  C12      -13.4820   -2.9570   41.6000 C.2   401  WIO401      0.2614
      7  C14      -11.9960   -3.6860   39.5900 C.3   401  WIO401      0.1287
      8  C15      -11.1100   -2.7010   38.8220 C.3   401  WIO401      0.0335
      9  C16      -11.5730   -1.2440   38.7620 C.3   401  WIO401      0.0818
     10  C19      -12.5620    0.2590   37.1340 C.3   401  WIO401      0.1156
     11  C20      -12.8020   -1.0380   37.8970 C.3   401  WIO401      0.0326
     12  O21       -9.3150   -0.5100   38.1830 O.2   401  WIO401     -0.2734
     13  C22      -11.2790   -5.0790   39.4280 C.3   401  WIO401      0.2036
     14  O23      -12.1470   -5.9850   38.8780 O.3   401  WIO401     -0.2185
     15  C05      -13.8640   -0.1260   42.5480 C.2   401  WIO401      0.4216
     16  C03      -14.0780    2.1590   41.7910 C.3   401  WIO401      0.2496
     17  C02      -14.9760    3.4290   42.0980 C.3   401  WIO401      0.1734
     18  C01      -14.1220    4.6700   41.8070 C.3   401  WIO401      0.0475
     19  C17      -10.5180   -0.4480   38.0210 C.2   401  WIO401      0.2410
     20  C26      -16.2420    3.3140   41.2680 C.3   401  WIO401      0.0475
     21  C28      -14.3670    3.4430   44.4400 C.ar  401  WIO401      0.1406
     22  C29      -14.0030    2.2220   45.0570 C.ar  401  WIO401      0.0370
     23  C30      -13.0150    2.1820   46.0550 C.ar  401  WIO401      0.0054
     24  C31      -12.3510    3.3440   46.4810 C.ar  401  WIO401      0.0298
     25  C32      -12.7250    4.5330   45.8590 C.ar  401  WIO401      0.1432
     26  C34      -13.7100    4.6280   44.8620 C.ar  401  WIO401      0.0665
     27  F33      -12.0730    5.6660   46.2770 F     401  WIO401     -0.2041
     28  N06      -14.3750   -1.2730   43.1200 N.am  401  WIO401     -0.1611
     29  N13      -12.2380   -3.2400   41.0110 N.am  401  WIO401     -0.2030
     30  N18      -11.0960    0.3900   37.0830 N.am  401  WIO401     -0.2054
     31  O04      -14.5830    0.9820   42.3740 O.3   401  WIO401     -0.4297
     32  O24      -14.5200   -3.0840   40.9560 O.2   401  WIO401     -0.2715
     33  O25      -12.7130   -0.0580   42.1580 O.2   401  WIO401     -0.2245
     34  O27      -15.3510    3.4500   43.4580 O.3   401  WIO401     -0.4788
@<TRIPOS>BOND
     1    30    10    1
     2    30    19   am
     3    10    11    1
     4    11     9    1
     5    19    12    2
     6    19     9    1
     7     9     8    1
     8     8     7    1
     9    14    13    1
    10    13     7    1
    11     7    29    1
    12    32     6    2
    13    29     6   am
    14    20    17    1
    15     6     1    1
    16    16    17    1
    17    16    31    1
    18    18    17    1
    19    17    34    1
    20    33    15    2
    21    31    15    1
    22    15    28   am
    23     1    28    1
    24     1     2    1
    25    34    21    1
    26     2     3    1
    27    21    26   ar
    28    21    22   ar
    29    26    25   ar
    30    22    23   ar
    31     3     5    1
    32     3     4    1
    33    25    27    1
    34    25    24   ar
    35    23    24   ar
