WQJ
  -OEChem-02242320043D

 21 22  0     0  0  0  0  0  0999 V2000
    3.4830   -0.6600   -0.0380 N   0  0  0  0  0  0  0  0  0  0  0  0
   -1.3500   -1.5490   -0.0470 C   0  0  0  0  0  0  0  0  0  0  0  0
   -2.7920    0.3240   -0.3770 C   0  0  0  0  0  0  0  0  0  0  0  0
   -1.7720    1.3690    0.0750 C   0  0  0  0  0  0  0  0  0  0  0  0
   -0.3840    0.7790    0.0370 C   0  0  0  0  0  0  0  0  0  0  0  0
    1.8940    1.1650    0.0340 C   0  0  0  0  0  0  0  0  0  0  0  0
    2.1650   -0.1970   -0.0150 C   0  0  0  0  0  0  0  0  0  0  0  0
    1.0990   -1.0920   -0.0400 C   0  0  0  0  0  0  0  0  0  0  0  0
   -0.1930   -0.5860   -0.0150 C   0  0  0  0  0  0  0  0  0  0  0  0
   -2.5530   -0.8880    0.3470 O   0  0  0  0  0  0  0  0  0  0  0  0
    0.6530    1.6010    0.0580 N   0  0  0  0  0  0  0  0  0  0  0  0
    4.2190   -0.0290   -0.0210 H   0  0  0  0  0  0  0  0  0  0  0  0
    3.6610   -1.6130   -0.0680 H   0  0  0  0  0  0  0  0  0  0  0  0
   -1.4670   -1.9390   -1.0580 H   0  0  0  0  0  0  0  0  0  0  0  0
   -1.1520   -2.3750    0.6360 H   0  0  0  0  0  0  0  0  0  0  0  0
   -3.8000    0.6820   -0.1700 H   0  0  0  0  0  0  0  0  0  0  0  0
   -2.6810    0.1420   -1.4470 H   0  0  0  0  0  0  0  0  0  0  0  0
   -1.8170    2.2320   -0.5900 H   0  0  0  0  0  0  0  0  0  0  0  0
   -2.0030    1.6840    1.0930 H   0  0  0  0  0  0  0  0  0  0  0  0
    2.7100    1.8720    0.0520 H   0  0  0  0  0  0  0  0  0  0  0  0
    1.2740   -2.1570   -0.0780 H   0  0  0  0  0  0  0  0  0  0  0  0
  1  7  1  0  0  0  0
  7  8  2  0  0  0  0
  8  9  1  0  0  0  0
  2  9  1  0  0  0  0
  2 10  1  0  0  0  0
  6  7  1  0  0  0  0
  5  9  2  0  0  0  0
  3 10  1  0  0  0  0
  6 11  2  0  0  0  0
  5 11  1  0  0  0  0
  4  5  1  0  0  0  0
  3  4  1  0  0  0  0
  1 12  1  0  0  0  0
  1 13  1  0  0  0  0
  2 14  1  0  0  0  0
  2 15  1  0  0  0  0
  3 16  1  0  0  0  0
  3 17  1  0  0  0  0
  4 18  1  0  0  0  0
  4 19  1  0  0  0  0
  6 20  1  0  0  0  0
  8 21  1  0  0  0  0
M  END
> <OPENEYE_ISO_SMILES>
c1c(cnc2c1COCC2)N

> <OPENEYE_INCHI>
InChI=1S/C8H10N2O/c9-7-3-6-5-11-2-1-8(6)10-4-7/h3-4H,1-2,5,9H2

> <OPENEYE_INCHIKEY>
MDASSZXVCIBITR-UHFFFAOYSA-N

> <FORMULA>
C8H10N2O

$$$$
