T6M
  -OEChem-02242320043D

 34 35  0     0  0  0  0  0  0999 V2000
   -1.0860   -0.4530    0.0000 N   0  0  0  0  0  0  0  0  0  0  0  0
   -1.6270    0.0020    1.2890 C   0  0  0  0  0  0  0  0  0  0  0  0
   -3.1440   -0.2270    1.2920 C   0  0  0  0  0  0  0  0  0  0  0  0
    1.6570   -0.6730   -0.0270 C   0  0  0  0  0  0  0  0  0  0  0  0
    2.2600   -0.3720    1.1800 C   0  0  0  0  0  0  0  0  0  0  0  0
    3.4510    0.3280    1.2010 C   0  0  0  0  0  0  0  0  0  0  0  0
    3.4390    0.4220   -1.1930 C   0  0  0  0  0  0  0  0  0  0  0  0
   -3.7050    0.3290    0.0530 N   0  0  0  0  0  0  0  0  0  0  0  0
   -5.2640    1.8000   -1.1820 C   0  0  0  0  0  0  0  0  0  0  0  0
   -5.1350    1.6080    1.1660 O   0  0  0  0  0  0  0  0  0  0  0  0
   -4.6980    1.2390    0.0970 C   0  0  0  0  0  0  0  0  0  0  0  0
    2.2470   -0.2780   -1.2130 C   0  0  0  0  0  0  0  0  0  0  0  0
   -3.1640   -0.1260   -1.2360 C   0  0  0  0  0  0  0  0  0  0  0  0
   -1.6480    0.1020   -1.2390 C   0  0  0  0  0  0  0  0  0  0  0  0
    4.0400    0.7280    0.0150 C   0  0  0  0  0  0  0  0  0  0  0  0
    0.0770   -2.2900    1.1670 O   0  0  0  0  0  0  0  0  0  0  0  0
    0.0600   -2.1870   -1.3300 O   0  0  0  0  0  0  0  0  0  0  0  0
    0.1380   -1.5660   -0.0540 S   0  0  0  0  0  0  0  0  0  0  0  0
    5.5360    1.6090    0.0420 Cl  0  0  0  0  0  0  0  0  0  0  0  0
   -1.1690   -0.5660    2.0990 H   0  0  0  0  0  0  0  0  0  0  0  0
   -1.4170    1.0640    1.4190 H   0  0  0  0  0  0  0  0  0  0  0  0
   -3.3520   -1.2950    1.3420 H   0  0  0  0  0  0  0  0  0  0  0  0
   -3.5870    0.2760    2.1520 H   0  0  0  0  0  0  0  0  0  0  0  0
    1.8010   -0.6850    2.1060 H   0  0  0  0  0  0  0  0  0  0  0  0
    3.9220    0.5640    2.1440 H   0  0  0  0  0  0  0  0  0  0  0  0
    3.9000    0.7310   -2.1190 H   0  0  0  0  0  0  0  0  0  0  0  0
   -5.6760    0.9890   -1.7830 H   0  0  0  0  0  0  0  0  0  0  0  0
   -6.0510    2.5160   -0.9480 H   0  0  0  0  0  0  0  0  0  0  0  0
   -4.4730    2.3000   -1.7410 H   0  0  0  0  0  0  0  0  0  0  0  0
    1.7780   -0.5170   -2.1560 H   0  0  0  0  0  0  0  0  0  0  0  0
   -3.3750   -1.1880   -1.3660 H   0  0  0  0  0  0  0  0  0  0  0  0
   -3.6240    0.4400   -2.0460 H   0  0  0  0  0  0  0  0  0  0  0  0
   -1.4390    1.1710   -1.2890 H   0  0  0  0  0  0  0  0  0  0  0  0
   -1.2040   -0.4000   -2.0990 H   0  0  0  0  0  0  0  0  0  0  0  0
  9 11  1  0  0  0  0
 10 11  2  0  0  0  0
  8 11  1  0  0  0  0
  8 13  1  0  0  0  0
 13 14  1  0  0  0  0
  1 14  1  0  0  0  0
  1  2  1  0  0  0  0
  2  3  1  0  0  0  0
  3  8  1  0  0  0  0
  1 18  1  0  0  0  0
 16 18  2  0  0  0  0
 17 18  2  0  0  0  0
  4 18  1  0  0  0  0
  4  5  2  0  0  0  0
  5  6  1  0  0  0  0
  6 15  2  0  0  0  0
 15 19  1  0  0  0  0
  7 15  1  0  0  0  0
  7 12  2  0  0  0  0
  4 12  1  0  0  0  0
  2 20  1  0  0  0  0
  2 21  1  0  0  0  0
  3 22  1  0  0  0  0
  3 23  1  0  0  0  0
  5 24  1  0  0  0  0
  6 25  1  0  0  0  0
  7 26  1  0  0  0  0
  9 27  1  0  0  0  0
  9 28  1  0  0  0  0
  9 29  1  0  0  0  0
 12 30  1  0  0  0  0
 13 31  1  0  0  0  0
 13 32  1  0  0  0  0
 14 33  1  0  0  0  0
 14 34  1  0  0  0  0
M  END
> <OPENEYE_ISO_SMILES>
CC(=O)N1CCN(CC1)S(=O)(=O)c2ccc(cc2)Cl

> <OPENEYE_INCHI>
InChI=1S/C12H15ClN2O3S/c1-10(16)14-6-8-15(9-7-14)19(17,18)12-4-2-11(13)3-5-12/h2-5H,6-9H2,1H3

> <OPENEYE_INCHIKEY>
VTRBWFKJTCGLDP-UHFFFAOYSA-N

> <FORMULA>
C12H15ClN2O3S

$$$$
