I80
  -OEChem-02242320023D

 66 69  0     1  0  0  0  0  0999 V2000
   -1.5060    0.1420   -0.3150 C   0  0  0  0  0  0  0  0  0  0  0  0
   -0.0420    0.0600   -0.6640 C   0  0  0  0  0  0  0  0  0  0  0  0
    0.5120    2.1510    0.6720 C   0  0  0  0  0  0  0  0  0  0  0  0
    2.2760    1.0750   -0.4270 C   0  0  2  0  0  0  0  0  0  0  0  0
    3.0320    0.5440    0.7640 C   0  0  0  0  0  0  0  0  0  0  0  0
    1.3880    3.2920    0.1130 C   0  0  2  0  0  0  0  0  0  0  0  0
    5.0690   -0.3020    1.8000 C   0  0  1  0  0  0  0  0  0  0  0  0
    1.5380    3.4100   -1.4050 C   0  0  0  0  0  0  0  0  0  0  0  0
    6.2450   -1.1540    1.3190 C   0  0  0  0  0  0  0  0  0  0  0  0
    5.7140   -2.3920    0.5920 C   0  0  2  0  0  0  0  0  0  0  0  0
    6.8840   -3.2870    0.1220 C   0  0  0  0  0  0  0  0  0  0  0  0
    7.1020   -2.7860   -1.3240 C   0  0  0  0  0  0  0  0  0  0  0  0
    0.5340    2.6490   -2.2730 C   0  0  0  0  0  0  0  0  0  0  0  0
    5.0130   -1.9940   -0.6880 C   0  0  0  0  0  0  0  0  0  0  0  0
    2.0100    4.7530   -1.9650 C   0  0  0  0  0  0  0  0  0  0  0  0
   -8.1950   -0.2260    0.7670 C   0  0  0  0  0  0  0  0  0  0  0  0
   -3.5440   -1.0190   -0.7100 C   0  0  0  0  0  0  0  0  0  0  0  0
    2.5520    2.5830   -0.6110 C   0  0  2  0  0  0  0  0  0  0  0  0
   -4.2820   -2.0480   -1.2750 C   0  0  0  0  0  0  0  0  0  0  0  0
   -5.6430   -2.1230   -1.0540 C   0  0  0  0  0  0  0  0  0  0  0  0
   -6.2720   -1.1690   -0.2690 C   0  0  0  0  0  0  0  0  0  0  0  0
   -5.5340   -0.1400    0.2970 C   0  0  0  0  0  0  0  0  0  0  0  0
    5.5950    0.8680    2.6330 C   0  0  0  0  0  0  0  0  0  0  0  0
   -4.1720   -0.0680    0.0810 C   0  0  0  0  0  0  0  0  0  0  0  0
   -7.6070   -0.2570    2.0360 F   0  0  0  0  0  0  0  0  0  0  0  0
   -9.5700   -0.4520    0.8840 F   0  0  0  0  0  0  0  0  0  0  0  0
   -7.9760    1.0260    0.1820 F   0  0  0  0  0  0  0  0  0  0  0  0
    0.8150    0.9880   -0.1940 N   0  0  0  0  0  0  0  0  0  0  0  0
    4.3330    0.2140    0.6430 N   0  0  0  0  0  0  0  0  0  0  0  0
    5.8100   -2.2300   -1.7450 N   0  0  0  0  0  0  0  0  0  0  0  0
   -2.2030   -0.9450   -0.9270 O   0  0  0  0  0  0  0  0  0  0  0  0
   -7.6130   -1.2420   -0.0520 O   0  0  0  0  0  0  0  0  0  0  0  0
    3.8950   -1.5290   -0.7530 O   0  0  0  0  0  0  0  0  0  0  0  0
    0.3630   -0.8400   -1.3690 O   0  0  0  0  0  0  0  0  0  0  0  0
    2.4700    0.4140    1.8310 O   0  0  0  0  0  0  0  0  0  0  0  0
    6.5560    1.6020    1.8710 O   0  0  0  0  0  0  0  0  0  0  0  0
   -1.6250    0.0860    0.7670 H   0  0  0  0  0  0  0  0  0  0  0  0
   -1.9140    1.0860   -0.6770 H   0  0  0  0  0  0  0  0  0  0  0  0
    0.7820    1.9350    1.7060 H   0  0  0  0  0  0  0  0  0  0  0  0
   -0.5440    2.4110    0.6020 H   0  0  0  0  0  0  0  0  0  0  0  0
    2.5510    0.5250   -1.3270 H   0  0  0  0  0  0  0  0  0  0  0  0
    1.5530    4.1610    0.7500 H   0  0  0  0  0  0  0  0  0  0  0  0
    4.4040   -0.9130    2.4110 H   0  0  0  0  0  0  0  0  0  0  0  0
    6.8620   -0.5700    0.6370 H   0  0  0  0  0  0  0  0  0  0  0  0
    6.8430   -1.4650    2.1750 H   0  0  0  0  0  0  0  0  0  0  0  0
    5.0380   -2.9520    1.2380 H   0  0  0  0  0  0  0  0  0  0  0  0
    7.7720   -3.1190    0.7300 H   0  0  0  0  0  0  0  0  0  0  0  0
    6.5980   -4.3390    0.1310 H   0  0  0  0  0  0  0  0  0  0  0  0
    7.8700   -2.0130   -1.3430 H   0  0  0  0  0  0  0  0  0  0  0  0
    7.3840   -3.6160   -1.9720 H   0  0  0  0  0  0  0  0  0  0  0  0
   -0.1140    3.3600   -2.7860 H   0  0  0  0  0  0  0  0  0  0  0  0
    1.0700    2.0500   -3.0090 H   0  0  0  0  0  0  0  0  0  0  0  0
   -0.0700    1.9960   -1.6430 H   0  0  0  0  0  0  0  0  0  0  0  0
    2.3180    5.4010   -1.1450 H   0  0  0  0  0  0  0  0  0  0  0  0
    2.8520    4.5910   -2.6370 H   0  0  0  0  0  0  0  0  0  0  0  0
    1.1940    5.2250   -2.5130 H   0  0  0  0  0  0  0  0  0  0  0  0
    3.5800    2.9320   -0.5250 H   0  0  0  0  0  0  0  0  0  0  0  0
   -3.7920   -2.7910   -1.8870 H   0  0  0  0  0  0  0  0  0  0  0  0
   -6.2180   -2.9250   -1.4940 H   0  0  0  0  0  0  0  0  0  0  0  0
   -6.0230    0.6010    0.9120 H   0  0  0  0  0  0  0  0  0  0  0  0
    4.7670    1.5250    2.9020 H   0  0  0  0  0  0  0  0  0  0  0  0
    6.0650    0.4870    3.5400 H   0  0  0  0  0  0  0  0  0  0  0  0
   -3.5970    0.7340    0.5210 H   0  0  0  0  0  0  0  0  0  0  0  0
    4.7830    0.3180   -0.2100 H   0  0  0  0  0  0  0  0  0  0  0  0
    5.5640   -2.0560   -2.6660 H   0  0  0  0  0  0  0  0  0  0  0  0
    6.9320    2.3600    2.3380 H   0  0  0  0  0  0  0  0  0  0  0  0
 16 25  1  0  0  0  0
 16 26  1  0  0  0  0
 16 27  1  0  0  0  0
 16 32  1  0  0  0  0
 22 24  2  0  0  0  0
 21 22  1  0  0  0  0
 17 24  1  0  0  0  0
 21 32  1  0  0  0  0
  3  6  1  0  0  0  0
  6 18  1  0  0  0  0
  6  8  1  0  0  0  0
  3 28  1  0  0  0  0
 20 21  2  0  0  0  0
  5 35  2  0  0  0  0
  8 15  1  0  0  0  0
  1 31  1  0  0  0  0
  1  2  1  0  0  0  0
 17 31  1  0  0  0  0
 17 19  2  0  0  0  0
  8 18  1  0  0  0  0
  4 18  1  0  0  0  0
  2 28  1  0  0  0  0
  4 28  1  0  0  0  0
  8 13  1  0  0  0  0
 11 12  1  0  0  0  0
 10 11  1  0  0  0  0
  4  5  1  0  0  0  0
  5 29  1  0  0  0  0
 19 20  1  0  0  0  0
  2 34  2  0  0  0  0
 12 30  1  0  0  0  0
  7 29  1  0  0  0  0
  7 23  1  0  0  0  0
  7  9  1  0  0  0  0
 23 36  1  0  0  0  0
  9 10  1  0  0  0  0
 10 14  1  0  0  0  0
 14 30  1  0  0  0  0
 14 33  2  0  0  0  0
  1 37  1  0  0  0  0
  1 38  1  0  0  0  0
  3 39  1  0  0  0  0
  3 40  1  0  0  0  0
  4 41  1  0  0  0  0
  6 42  1  0  0  0  0
  7 43  1  0  0  0  0
  9 44  1  0  0  0  0
  9 45  1  0  0  0  0
 10 46  1  0  0  0  0
 11 47  1  0  0  0  0
 11 48  1  0  0  0  0
 12 49  1  0  0  0  0
 12 50  1  0  0  0  0
 13 51  1  0  0  0  0
 13 52  1  0  0  0  0
 13 53  1  0  0  0  0
 15 54  1  0  0  0  0
 15 55  1  0  0  0  0
 15 56  1  0  0  0  0
 18 57  1  0  0  0  0
 19 58  1  0  0  0  0
 20 59  1  0  0  0  0
 22 60  1  0  0  0  0
 23 61  1  0  0  0  0
 23 62  1  0  0  0  0
 24 63  1  0  0  0  0
 29 64  1  0  0  0  0
 30 65  1  0  0  0  0
 36 66  1  0  0  0  0
M  END
> <OPENEYE_ISO_SMILES>
CC1([C@@H]2[C@H]1[C@H](N(C2)C(=O)COc3ccc(cc3)OC(F)(F)F)C(=O)N[C@@H](C[C@@H]4CCNC4=O)CO)C

> <OPENEYE_INCHI>
InChI=1S/C24H30F3N3O6/c1-23(2)17-10-30(18(32)12-35-15-3-5-16(6-4-15)36-24(25,26)27)20(19(17)23)22(34)29-14(11-31)9-13-7-8-28-21(13)33/h3-6,13-14,17,19-20,31H,7-12H2,1-2H3,(H,28,33)(H,29,34)/t13-,14-,17-,19-,20-/m0/s1

> <OPENEYE_INCHIKEY>
OINAVIUBZFOBLX-VMBFOHBNSA-N

> <FORMULA>
C24H30F3N3O6

$$$$
