XEY
  -OEChem-02242320043D

 42 45  0     0  0  0  0  0  0999 V2000
    3.9330    1.0990   -1.0160 C   0  0  0  0  0  0  0  0  0  0  0  0
    2.5610    0.9540   -0.9470 C   0  0  0  0  0  0  0  0  0  0  0  0
    0.5230    0.0270    0.1470 C   0  0  0  0  0  0  0  0  0  0  0  0
    2.8160   -0.4320    1.0100 C   0  0  0  0  0  0  0  0  0  0  0  0
   -0.2870    1.1190    0.4050 C   0  0  0  0  0  0  0  0  0  0  0  0
   -1.9750   -2.6550   -0.1460 C   0  0  0  0  0  0  0  0  0  0  0  0
   -2.5750    2.0820    0.7460 C   0  0  0  0  0  0  0  0  0  0  0  0
   -2.1800   -3.5070    0.9370 C   0  0  0  0  0  0  0  0  0  0  0  0
   -2.7450   -4.7480    0.7000 C   0  0  0  0  0  0  0  0  0  0  0  0
   -3.0860   -5.1000   -0.5930 C   0  0  0  0  0  0  0  0  0  0  0  0
   -2.3490   -3.0770   -1.4140 C   0  0  0  0  0  0  0  0  0  0  0  0
   -1.6830    0.9320    0.4730 C   0  0  0  0  0  0  0  0  0  0  0  0
   -3.3410    2.6470   -0.2910 C   0  0  0  0  0  0  0  0  0  0  0  0
   -4.1810    3.7270   -0.0170 C   0  0  0  0  0  0  0  0  0  0  0  0
   -4.2570    4.2340    1.2630 C   0  0  0  0  0  0  0  0  0  0  0  0
   -3.5030    3.6770    2.2830 C   0  0  0  0  0  0  0  0  0  0  0  0
   -2.6660    2.6080    2.0320 C   0  0  0  0  0  0  0  0  0  0  0  0
   -3.2570    2.1180   -1.6190 C   0  0  0  0  0  0  0  0  0  0  0  0
    4.7440    0.4830   -0.0790 C   0  0  0  0  0  0  0  0  0  0  0  0
    1.9940    0.1860    0.0690 C   0  0  0  0  0  0  0  0  0  0  0  0
    4.1860   -0.2760    0.9360 C   0  0  0  0  0  0  0  0  0  0  0  0
   -0.0710   -1.2460   -0.0340 C   0  0  0  0  0  0  0  0  0  0  0  0
   -2.2130   -0.3250    0.2830 C   0  0  0  0  0  0  0  0  0  0  0  0
   -1.4070   -1.3890    0.0430 N   0  0  0  0  0  0  0  0  0  0  0  0
   -2.8800   -4.2700   -1.5970 N   0  0  0  0  0  0  0  0  0  0  0  0
   -3.1910    1.6970   -2.6720 N   0  0  0  0  0  0  0  0  0  0  0  0
    0.6310   -2.2170   -0.2620 O   0  0  0  0  0  0  0  0  0  0  0  0
    4.6410    2.0490   -2.2850 Cl  0  0  0  0  0  0  0  0  0  0  0  0
    5.2110   -1.0440    2.1080 Cl  0  0  0  0  0  0  0  0  0  0  0  0
    1.9290    1.4350   -1.6790 H   0  0  0  0  0  0  0  0  0  0  0  0
    2.3820   -1.0310    1.7970 H   0  0  0  0  0  0  0  0  0  0  0  0
    0.1440    2.0980    0.5510 H   0  0  0  0  0  0  0  0  0  0  0  0
   -1.9030   -3.2060    1.9370 H   0  0  0  0  0  0  0  0  0  0  0  0
   -2.9180   -5.4350    1.5160 H   0  0  0  0  0  0  0  0  0  0  0  0
   -3.5230   -6.0690   -0.7840 H   0  0  0  0  0  0  0  0  0  0  0  0
   -2.2000   -2.4230   -2.2610 H   0  0  0  0  0  0  0  0  0  0  0  0
   -4.7710    4.1670   -0.8080 H   0  0  0  0  0  0  0  0  0  0  0  0
   -4.9080    5.0690    1.4720 H   0  0  0  0  0  0  0  0  0  0  0  0
   -3.5700    4.0820    3.2820 H   0  0  0  0  0  0  0  0  0  0  0  0
   -2.0850    2.1770    2.8330 H   0  0  0  0  0  0  0  0  0  0  0  0
    5.8170    0.5950   -0.1390 H   0  0  0  0  0  0  0  0  0  0  0  0
   -3.2820   -0.4670    0.3360 H   0  0  0  0  0  0  0  0  0  0  0  0
 10 25  2  0  0  0  0
  9 10  1  0  0  0  0
 11 25  1  0  0  0  0
  8  9  2  0  0  0  0
  6 11  2  0  0  0  0
  6  8  1  0  0  0  0
 18 26  3  0  0  0  0
  6 24  1  0  0  0  0
 13 18  1  0  0  0  0
 23 24  1  0  0  0  0
 22 24  1  0  0  0  0
 12 23  2  0  0  0  0
 13 14  2  0  0  0  0
  7 13  1  0  0  0  0
 14 15  1  0  0  0  0
 22 27  2  0  0  0  0
  3 22  1  0  0  0  0
  7 12  1  0  0  0  0
  5 12  1  0  0  0  0
  7 17  2  0  0  0  0
 15 16  2  0  0  0  0
  3  5  2  0  0  0  0
  3 20  1  0  0  0  0
 16 17  1  0  0  0  0
  4 20  2  0  0  0  0
  2 20  1  0  0  0  0
  4 21  1  0  0  0  0
  1  2  2  0  0  0  0
 21 29  1  0  0  0  0
 19 21  2  0  0  0  0
  1 19  1  0  0  0  0
  1 28  1  0  0  0  0
  2 30  1  0  0  0  0
  4 31  1  0  0  0  0
  5 32  1  0  0  0  0
  8 33  1  0  0  0  0
  9 34  1  0  0  0  0
 10 35  1  0  0  0  0
 11 36  1  0  0  0  0
 14 37  1  0  0  0  0
 15 38  1  0  0  0  0
 16 39  1  0  0  0  0
 17 40  1  0  0  0  0
 19 41  1  0  0  0  0
 23 42  1  0  0  0  0
M  END
> <OPENEYE_ISO_SMILES>
c1ccc(c(c1)C#N)c2cc(c(=O)n(c2)c3cccnc3)c4cc(cc(c4)Cl)Cl

> <OPENEYE_INCHI>
InChI=1S/C23H13Cl2N3O/c24-18-8-16(9-19(25)11-18)22-10-17(21-6-2-1-4-15(21)12-26)14-28(23(22)29)20-5-3-7-27-13-20/h1-11,13-14H

> <OPENEYE_INCHIKEY>
KXGLBZMRWKVPSY-UHFFFAOYSA-N

> <FORMULA>
C23H13Cl2N3O

$$$$
