@<TRIPOS>MOLECULE
/home/pku/3cl/gett_pdb/5SOK/5SOK_mol2/ligand/5SOK_RVO.pdb
 34 36 0 0 0
SMALL
GASTEIGER

@<TRIPOS>ATOM
      1  C16      -54.1010  -26.2900   10.1020 C.ar  201  RVO201     -0.0018
      2  C17      -52.9010  -29.5590    6.5150 C.3   201  RVO201      0.0506
      3  C15      -54.8820  -25.9330   11.2210 C.ar  201  RVO201      0.0310
      4  C13      -55.9430  -27.9830   11.2550 C.ar  201  RVO201      0.0310
      5  C12      -55.2210  -28.4280   10.1480 C.ar  201  RVO201     -0.0018
      6  C11      -54.2720  -27.5550    9.5550 C.ar  201  RVO201      0.1239
      7  C19      -50.0840  -28.9470    3.5160 C.ar  201  RVO201      0.1202
      8  C02      -48.2970  -29.0350    4.9660 C.ar  201  RVO201      0.1397
      9  C03      -49.1770  -29.1760    6.0450 C.ar  201  RVO201      0.1201
     10  C05      -50.5600  -29.1930    5.7660 C.ar  201  RVO201      0.1449
     11  C07      -51.4510  -29.7430    8.3230 C.3   201  RVO201      0.0171
     12  C08      -52.9380  -30.0960    8.7720 C.3   201  RVO201      0.0015
     13  C09      -53.6430  -29.3260    7.9930 C.3   201  RVO201      0.1172
     14  N01      -46.8540  -29.0270    5.2030 N.pl3 201  RVO201     -0.3418
     15  N06      -51.6120  -29.3490    6.7910 N.pl3 201  RVO201     -0.3103
     16  N14      -55.7680  -26.7640   11.7680 N.ar  201  RVO201     -0.2630
     17  N18      -50.9600  -29.0820    4.5100 N.ar  201  RVO201     -0.2191
     18  N20      -48.7730  -28.9290    3.7260 N.ar  201  RVO201     -0.2195
     19  O10      -53.4680  -27.9520    8.3770 O.3   201  RVO201     -0.4871
     20 CL04      -48.5200  -29.3180    7.6950 Cl    201  RVO201     -0.0764
     21 H161      -53.3760  -25.5860    9.6770 H     201  RVO201      0.0669
     22 H172      -53.0590  -30.5910    6.1780 H     201  RVO201      0.0500
     23 H171      -53.2700  -28.8430    5.7580 H     201  RVO201      0.0500
     24 H151      -54.7530  -24.9520   11.6450 H     201  RVO201      0.0830
     25 H131      -56.6750  -28.6620   11.7080 H     201  RVO201      0.0830
     26 H121      -55.3760  -29.4390    9.7490 H     201  RVO201      0.0669
     27 H191      -50.4650  -28.8650    2.5040 H     201  RVO201      0.1048
     28 H071      -51.0490  -28.8990    8.8940 H     201  RVO201      0.0465
     29 H072      -50.8210  -30.6260    8.4340 H     201  RVO201      0.0465
     30 H082      -53.1460  -31.1180    8.5690 H     201  RVO201      0.0317
     31 H081      -53.0790  -29.8810    9.8280 H     201  RVO201      0.0317
     32 H091      -54.6960  -29.6400    7.9300 H     201  RVO201      0.0749
     33 H011      -46.2620  -29.6310    4.6710 H     201  RVO201      0.1437
     34 H012      -46.4670  -28.4400    5.9080 H     201  RVO201      0.1437
@<TRIPOS>BOND
     1    27     7    1
     2     7    18   ar
     3     7    17   ar
     4    18     8   ar
     5    17    10   ar
     6    33    14    1
     7     8    14    1
     8     8     9   ar
     9    14    34    1
    10    23     2    1
    11    10     9   ar
    12    10    15    1
    13     9    20    1
    14    22     2    1
    15     2    15    1
    16     2    13    1
    17    15    11    1
    18    32    13    1
    19    13    19    1
    20    13    12    1
    21    11    29    1
    22    11    12    1
    23    11    28    1
    24    19     6    1
    25    30    12    1
    26    12    31    1
    27     6     1   ar
    28     6     5   ar
    29    21     1    1
    30    26     5    1
    31     1     3   ar
    32     5     4   ar
    33     3    24    1
    34     3    16   ar
    35     4    25    1
    36     4    16   ar
