8X8
  -OEChem-02242320013D

 57 58  0     1  0  0  0  0  0999 V2000
    1.4880   -4.1470    0.5790 C   0  0  0  0  0  0  0  0  0  0  0  0
    1.5560   -5.5580   -0.0100 C   0  0  0  0  0  0  0  0  0  0  0  0
    0.2100   -4.0010    1.4060 C   0  0  0  0  0  0  0  0  0  0  0  0
    2.7050   -3.9100    1.4750 C   0  0  0  0  0  0  0  0  0  0  0  0
    1.4830   -3.1730   -0.4980 O   0  0  0  0  0  0  0  0  0  0  0  0
    1.4260   -1.8750   -0.1470 C   0  0  0  0  0  0  0  0  0  0  0  0
    1.3820   -1.5640    1.0270 O   0  0  0  0  0  0  0  0  0  0  0  0
    1.4170   -0.9190   -1.0980 N   0  0  0  0  0  0  0  0  0  0  0  0
    1.2450    0.4860   -0.7230 C   0  0  1  0  0  0  0  0  0  0  0  0
    2.6140    1.1100   -0.4430 C   0  0  0  0  0  0  0  0  0  0  0  0
    2.4290    2.5520    0.0350 C   0  0  1  0  0  0  0  0  0  0  0  0
    1.8610    2.5760    1.4370 C   0  0  0  0  0  0  0  0  0  0  0  0
    0.9400    1.8890    1.8250 O   0  0  0  0  0  0  0  0  0  0  0  0
    2.5250    3.4700    2.1900 N   0  0  0  0  0  0  0  0  0  0  0  0
    3.5770    4.1410    1.4170 C   0  0  0  0  0  0  0  0  0  0  0  0
    3.7980    3.2580    0.1690 C   0  0  0  0  0  0  0  0  0  0  0  0
    0.5650    1.2400   -1.8670 C   0  0  1  0  0  0  0  0  0  0  0  0
    1.3760    1.1560   -3.0410 O   0  0  0  0  0  0  0  0  0  0  0  0
   -0.7830    0.6250   -2.1430 C   0  0  0  0  0  0  0  0  0  0  0  0
   -0.9950    0.0800   -3.2050 O   0  0  0  0  0  0  0  0  0  0  0  0
   -1.7530    0.6810   -1.2090 N   0  0  0  0  0  0  0  0  0  0  0  0
   -3.0630    0.0830   -1.4770 C   0  0  0  0  0  0  0  0  0  0  0  0
   -3.9590    0.2810   -0.2810 C   0  0  0  0  0  0  0  0  0  0  0  0
   -3.9850   -0.6650    0.7270 C   0  0  0  0  0  0  0  0  0  0  0  0
   -4.7510    1.4110   -0.1900 C   0  0  0  0  0  0  0  0  0  0  0  0
   -5.5730    1.5920    0.9070 C   0  0  0  0  0  0  0  0  0  0  0  0
   -5.6030    0.6430    1.9120 C   0  0  0  0  0  0  0  0  0  0  0  0
   -4.8070   -0.4840    1.8230 C   0  0  0  0  0  0  0  0  0  0  0  0
    0.6890   -5.7270   -0.6480 H   0  0  0  0  0  0  0  0  0  0  0  0
    2.4670   -5.6620   -0.5990 H   0  0  0  0  0  0  0  0  0  0  0  0
    1.5600   -6.2890    0.7990 H   0  0  0  0  0  0  0  0  0  0  0  0
    0.1610   -2.9960    1.8260 H   0  0  0  0  0  0  0  0  0  0  0  0
   -0.6580   -4.1700    0.7680 H   0  0  0  0  0  0  0  0  0  0  0  0
    0.2140   -4.7320    2.2150 H   0  0  0  0  0  0  0  0  0  0  0  0
    2.7100   -4.6410    2.2830 H   0  0  0  0  0  0  0  0  0  0  0  0
    3.6160   -4.0140    0.8860 H   0  0  0  0  0  0  0  0  0  0  0  0
    2.6570   -2.9050    1.8950 H   0  0  0  0  0  0  0  0  0  0  0  0
    1.5250   -1.1630   -2.0310 H   0  0  0  0  0  0  0  0  0  0  0  0
    0.6270    0.5500    0.1730 H   0  0  0  0  0  0  0  0  0  0  0  0
    3.1250    0.5350    0.3290 H   0  0  0  0  0  0  0  0  0  0  0  0
    3.2100    1.1040   -1.3550 H   0  0  0  0  0  0  0  0  0  0  0  0
    1.7820    3.1000   -0.6500 H   0  0  0  0  0  0  0  0  0  0  0  0
    2.3340    3.6480    3.1240 H   0  0  0  0  0  0  0  0  0  0  0  0
    3.2500    5.1380    1.1200 H   0  0  0  0  0  0  0  0  0  0  0  0
    4.4940    4.2030    2.0020 H   0  0  0  0  0  0  0  0  0  0  0  0
    4.5950    2.5340    0.3390 H   0  0  0  0  0  0  0  0  0  0  0  0
    4.0090    3.8690   -0.7090 H   0  0  0  0  0  0  0  0  0  0  0  0
    0.4380    2.2860   -1.5880 H   0  0  0  0  0  0  0  0  0  0  0  0
    1.5320    0.2520   -3.3470 H   0  0  0  0  0  0  0  0  0  0  0  0
   -1.5830    1.1170   -0.3590 H   0  0  0  0  0  0  0  0  0  0  0  0
   -3.5090    0.5620   -2.3480 H   0  0  0  0  0  0  0  0  0  0  0  0
   -2.9440   -0.9830   -1.6690 H   0  0  0  0  0  0  0  0  0  0  0  0
   -3.3640   -1.5450    0.6570 H   0  0  0  0  0  0  0  0  0  0  0  0
   -4.7260    2.1520   -0.9750 H   0  0  0  0  0  0  0  0  0  0  0  0
   -6.1900    2.4750    0.9780 H   0  0  0  0  0  0  0  0  0  0  0  0
   -6.2460    0.7850    2.7690 H   0  0  0  0  0  0  0  0  0  0  0  0
   -4.8280   -1.2220    2.6110 H   0  0  0  0  0  0  0  0  0  0  0  0
 12 13  2  0  0  0  0
 12 14  1  0  0  0  0
 11 12  1  0  0  0  0
 14 15  1  0  0  0  0
 10 11  1  0  0  0  0
  9 10  1  0  0  0  0
 11 16  1  0  0  0  0
 19 20  2  0  0  0  0
  9 17  1  0  0  0  0
 17 19  1  0  0  0  0
 17 18  1  0  0  0  0
  8  9  1  0  0  0  0
  6  8  1  0  0  0  0
 15 16  1  0  0  0  0
 19 21  1  0  0  0  0
  1  2  1  0  0  0  0
  5  6  1  0  0  0  0
  1  5  1  0  0  0  0
  6  7  2  0  0  0  0
 21 22  1  0  0  0  0
  1  3  1  0  0  0  0
  1  4  1  0  0  0  0
 22 23  1  0  0  0  0
 23 25  2  0  0  0  0
 23 24  1  0  0  0  0
 25 26  1  0  0  0  0
 24 28  2  0  0  0  0
 26 27  2  0  0  0  0
 27 28  1  0  0  0  0
  2 29  1  0  0  0  0
  2 30  1  0  0  0  0
  2 31  1  0  0  0  0
  3 32  1  0  0  0  0
  3 33  1  0  0  0  0
  3 34  1  0  0  0  0
  4 35  1  0  0  0  0
  4 36  1  0  0  0  0
  4 37  1  0  0  0  0
  8 38  1  0  0  0  0
  9 39  1  0  0  0  0
 10 40  1  0  0  0  0
 10 41  1  0  0  0  0
 11 42  1  0  0  0  0
 14 43  1  0  0  0  0
 15 44  1  0  0  0  0
 15 45  1  0  0  0  0
 16 46  1  0  0  0  0
 16 47  1  0  0  0  0
 17 48  1  0  0  0  0
 18 49  1  0  0  0  0
 21 50  1  0  0  0  0
 22 51  1  0  0  0  0
 22 52  1  0  0  0  0
 24 53  1  0  0  0  0
 25 54  1  0  0  0  0
 26 55  1  0  0  0  0
 27 56  1  0  0  0  0
 28 57  1  0  0  0  0
M  END
> <OPENEYE_ISO_SMILES>
CC(C)(C)OC(=O)N[C@@H](C[C@@H]1CCNC1=O)[C@H](C(=O)NCc2ccccc2)O

> <OPENEYE_INCHI>
InChI=1S/C20H29N3O5/c1-20(2,3)28-19(27)23-15(11-14-9-10-21-17(14)25)16(24)18(26)22-12-13-7-5-4-6-8-13/h4-8,14-16,24H,9-12H2,1-3H3,(H,21,25)(H,22,26)(H,23,27)/t14-,15-,16+/m0/s1

> <OPENEYE_INCHIKEY>
NGJBFZBVEKPTLR-HRCADAONSA-N

> <FORMULA>
C20H29N3O5

$$$$
