S9S
  -OEChem-02242320043D

 26 26  0     0  0  0  0  0  0999 V2000
   -2.2260    1.1780   -0.4170 C   0  0  0  0  0  0  0  0  0  0  0  0
   -3.5020    1.2090    0.1140 C   0  0  0  0  0  0  0  0  0  0  0  0
   -4.1880    0.0270    0.3350 C   0  0  0  0  0  0  0  0  0  0  0  0
   -3.5960   -1.1850    0.0230 C   0  0  0  0  0  0  0  0  0  0  0  0
   -2.3210   -1.2140   -0.5080 C   0  0  0  0  0  0  0  0  0  0  0  0
    2.1300   -0.1780   -0.7510 N   0  0  0  0  0  0  0  0  0  0  0  0
    3.4520   -1.2760    1.3890 C   0  0  0  0  0  0  0  0  0  0  0  0
    4.5540    0.0220   -0.6660 O   0  0  0  0  0  0  0  0  0  0  0  0
    0.7800   -0.1460   -0.1830 C   0  0  0  0  0  0  0  0  0  0  0  0
   -0.2480   -0.0660   -1.3130 C   0  0  0  0  0  0  0  0  0  0  0  0
   -1.6360   -0.0330   -0.7280 C   0  0  0  0  0  0  0  0  0  0  0  0
   -5.4350    0.0570    0.8540 F   0  0  0  0  0  0  0  0  0  0  0  0
    3.1290    1.3240    0.8820 O   0  0  0  0  0  0  0  0  0  0  0  0
    3.4430    0.1080    0.2160 S   0  0  0  0  0  0  0  0  0  0  0  0
   -1.6920    2.0990   -0.5940 H   0  0  0  0  0  0  0  0  0  0  0  0
   -3.9620    2.1550    0.3570 H   0  0  0  0  0  0  0  0  0  0  0  0
   -4.1310   -2.1070    0.1950 H   0  0  0  0  0  0  0  0  0  0  0  0
   -1.8590   -2.1590   -0.7510 H   0  0  0  0  0  0  0  0  0  0  0  0
    2.2550   -0.3670   -1.6940 H   0  0  0  0  0  0  0  0  0  0  0  0
    3.5460   -2.2140    0.8420 H   0  0  0  0  0  0  0  0  0  0  0  0
    4.2940   -1.1680    2.0720 H   0  0  0  0  0  0  0  0  0  0  0  0
    2.5210   -1.2780    1.9560 H   0  0  0  0  0  0  0  0  0  0  0  0
    0.6100   -1.0520    0.4000 H   0  0  0  0  0  0  0  0  0  0  0  0
    0.6790    0.7260    0.4630 H   0  0  0  0  0  0  0  0  0  0  0  0
   -0.0770    0.8390   -1.8960 H   0  0  0  0  0  0  0  0  0  0  0  0
   -0.1460   -0.9380   -1.9590 H   0  0  0  0  0  0  0  0  0  0  0  0
  3 12  1  0  0  0  0
  3  4  2  0  0  0  0
  2  3  1  0  0  0  0
  4  5  1  0  0  0  0
  1  2  2  0  0  0  0
  5 11  2  0  0  0  0
  1 11  1  0  0  0  0
 10 11  1  0  0  0  0
  9 10  1  0  0  0  0
  6  9  1  0  0  0  0
  6 14  1  0  0  0  0
  8 14  2  0  0  0  0
  7 14  1  0  0  0  0
 13 14  2  0  0  0  0
  1 15  1  0  0  0  0
  2 16  1  0  0  0  0
  4 17  1  0  0  0  0
  5 18  1  0  0  0  0
  6 19  1  0  0  0  0
  7 20  1  0  0  0  0
  7 21  1  0  0  0  0
  7 22  1  0  0  0  0
  9 23  1  0  0  0  0
  9 24  1  0  0  0  0
 10 25  1  0  0  0  0
 10 26  1  0  0  0  0
M  END
> <OPENEYE_ISO_SMILES>
CS(=O)(=O)NCCc1ccc(cc1)F

> <OPENEYE_INCHI>
InChI=1S/C9H12FNO2S/c1-14(12,13)11-7-6-8-2-4-9(10)5-3-8/h2-5,11H,6-7H2,1H3

> <OPENEYE_INCHIKEY>
JZUQJFQXYYHUJT-UHFFFAOYSA-N

> <FORMULA>
C9H12FNO2S

$$$$
