MES
  -OEChem-02242320033D

 25 25  0     0  0  0  0  0  0999 V2000
    4.1150    0.3260   -0.3730 O   0  0  0  0  0  0  0  0  0  0  0  0
    3.7640   -0.9230    0.2210 C   0  0  0  0  0  0  0  0  0  0  0  0
    2.3310   -1.2940   -0.1640 C   0  0  0  0  0  0  0  0  0  0  0  0
    1.4100   -0.2670    0.3430 N   0  3  0  0  0  0  0  0  0  0  0  0
    1.8120    1.0450   -0.1860 C   0  0  0  0  0  0  0  0  0  0  0  0
    3.2660    1.3210    0.1990 C   0  0  0  0  0  0  0  0  0  0  0  0
    0.0420   -0.5750   -0.0940 C   0  0  0  0  0  0  0  0  0  0  0  0
   -0.9320    0.4250    0.5330 C   0  0  0  0  0  0  0  0  0  0  0  0
   -2.6210    0.0450   -0.0070 S   0  0  0  0  0  0  0  0  0  0  0  0
   -2.9690   -1.3030    0.4150 O   0  0  0  0  0  0  0  0  0  0  0  0
   -2.6950    0.1380   -1.4570 O   0  0  0  0  0  0  0  0  0  0  0  0
   -3.5430    0.9980    0.5910 O   0  5  0  0  0  0  0  0  0  0  0  0
    3.8390   -0.8420    1.3060 H   0  0  0  0  0  0  0  0  0  0  0  0
    4.4460   -1.6970   -0.1310 H   0  0  0  0  0  0  0  0  0  0  0  0
    2.0750   -2.2600    0.2730 H   0  0  0  0  0  0  0  0  0  0  0  0
    2.2500   -1.3520   -1.2490 H   0  0  0  0  0  0  0  0  0  0  0  0
    1.4460   -0.2490    1.3510 H   0  0  0  0  0  0  0  0  0  0  0  0
    1.7170    1.0420   -1.2720 H   0  0  0  0  0  0  0  0  0  0  0  0
    1.1710    1.8200    0.2330 H   0  0  0  0  0  0  0  0  0  0  0  0
    3.3630    1.3000    1.2840 H   0  0  0  0  0  0  0  0  0  0  0  0
    3.5590    2.3040   -0.1720 H   0  0  0  0  0  0  0  0  0  0  0  0
   -0.2220   -1.5840    0.2210 H   0  0  0  0  0  0  0  0  0  0  0  0
   -0.0170   -0.5060   -1.1810 H   0  0  0  0  0  0  0  0  0  0  0  0
   -0.6680    1.4350    0.2180 H   0  0  0  0  0  0  0  0  0  0  0  0
   -0.8730    0.3570    1.6190 H   0  0  0  0  0  0  0  0  0  0  0  0
  1  2  1  0  0  0  0
  1  6  1  0  0  0  0
  2  3  1  0  0  0  0
  2 13  1  0  0  0  0
  2 14  1  0  0  0  0
  3  4  1  0  0  0  0
  3 15  1  0  0  0  0
  3 16  1  0  0  0  0
  4  5  1  0  0  0  0
  4  7  1  0  0  0  0
  4 17  1  0  0  0  0
  5  6  1  0  0  0  0
  5 18  1  0  0  0  0
  5 19  1  0  0  0  0
  6 20  1  0  0  0  0
  6 21  1  0  0  0  0
  7  8  1  0  0  0  0
  7 22  1  0  0  0  0
  7 23  1  0  0  0  0
  8  9  1  0  0  0  0
  8 24  1  0  0  0  0
  8 25  1  0  0  0  0
  9 10  2  0  0  0  0
  9 11  2  0  0  0  0
  9 12  1  0  0  0  0
M  CHG  2   4   1  12  -1
M  END
> <OPENEYE_ISO_SMILES>
C1COCC[NH+]1CCS(=O)(=O)[O-]

> <OPENEYE_INCHI>
InChI=1S/C6H13NO4S/c8-12(9,10)6-3-7-1-4-11-5-2-7/h1-6H2,(H,8,9,10)

> <OPENEYE_INCHIKEY>
SXGZJKUKBWWHRA-UHFFFAOYSA-N

> <FORMULA>
C6H13NO4S

$$$$
