@<TRIPOS>MOLECULE
/home/pku/3cl/gett_pdb/5SS5/5SS5_mol2/ligand/5SS5_RKU.pdb
 37 39 0 0 0
SMALL
GASTEIGER

@<TRIPOS>ATOM
      1  C17      -46.4440  -29.3050    5.3530 C.ar  201  RKU201      0.0945
      2  C15      -47.2620  -29.3090    3.3520 C.ar  201  RKU201      0.1010
      3  C14      -47.5620  -29.3790    1.9740 C.ar  201  RKU201      0.0668
      4  C13      -46.5400  -29.8410    0.9370 C.2   201  RKU201      0.2467
      5  C11      -44.0830  -32.7820   -1.3280 C.ar  201  RKU201     -0.0558
      6  C10      -44.4400  -33.9650   -1.9420 C.ar  201  RKU201     -0.0474
      7  C20      -49.5170  -28.5640    3.7860 C.ar  201  RKU201     -0.0010
      8  C19      -48.2380  -28.8950    4.2430 C.ar  201  RKU201      0.0695
      9  C02      -43.1850  -31.9970    2.4200 C.2   201  RKU201      0.0438
     10  C03      -43.0620  -31.2040    1.1180 C.3   201  RKU201      0.0094
     11  C04      -44.3930  -31.0110    0.4050 C.3   201  RKU201      0.0537
     12  C05      -44.8120  -32.3200   -0.2460 C.ar  201  RKU201     -0.0268
     13  C06      -45.8990  -33.0290    0.2360 C.ar  201  RKU201     -0.0558
     14  C07      -46.2570  -34.2140   -0.3730 C.ar  201  RKU201     -0.0474
     15  C08      -45.5290  -34.6670   -1.4530 C.ar  201  RKU201      0.0179
     16  C21      -49.7980  -28.6420    2.4410 C.ar  201  RKU201      0.1262
     17  C23      -48.8290  -29.0490    1.5300 C.ar  201  RKU201     -0.0122
     18  F22      -51.0430  -28.3130    2.0140 F     201  RKU201     -0.2054
     19  N12      -45.3710  -30.5520    1.3690 N.am  201  RKU201     -0.3041
     20  N16      -46.1600  -29.5540    4.0840 N.ar  201  RKU201     -0.2352
     21  N18      -47.6960  -28.9070    5.4670 N.ar  201  RKU201     -0.3443
     22  O01      -42.8500  -31.4680    3.5100 O.co2 201  RKU201     -0.5497
     23  O24      -46.7090  -29.6850   -0.2220 O.2   201  RKU201     -0.2701
     24  O25      -43.6330  -33.1710    2.4010 O.co2 201  RKU201     -0.5497
     25 BR09      -46.0680  -36.3130   -2.2850 Br    201  RKU201     -0.0503
     26 H171      -45.7570  -29.4360    6.1820 H     201  RKU201      0.1027
     27 H111      -43.2430  -32.2120   -1.7030 H     201  RKU201      0.0621
     28 H101      -43.8710  -34.3400   -2.7900 H     201  RKU201      0.0629
     29 H201      -50.2850  -28.2380    4.4720 H     201  RKU201      0.0667
     30 H032      -42.6780  -30.2110    1.3210 H     201  RKU201      0.0346
     31 H031      -42.3880  -31.7210    0.4570 H     201  RKU201      0.0346
     32 H041      -44.2920  -30.2660   -0.3730 H     201  RKU201      0.0552
     33 H061      -46.4650  -32.6700    1.0800 H     201  RKU201      0.0621
     34 H071      -47.0920  -34.7980   -0.0070 H     201  RKU201      0.0629
     35 H231      -49.0640  -29.1200    0.4740 H     201  RKU201      0.0654
     36 H121      -45.2240  -30.6910    2.3340 H     201  RKU201      0.1496
     37 H181      -48.1650  -28.6670    6.3160 H     201  RKU201      0.1668
@<TRIPOS>UNITY_ATOM_ATTR
22 1
charge -1
@<TRIPOS>BOND
     1    28     6    1
     2    25    15    1
     3     6    15   ar
     4     6     5   ar
     5    27     5    1
     6    15    14   ar
     7     5    12   ar
     8    14    34    1
     9    14    13   ar
    10    32    11    1
    11    12    13   ar
    12    12    11    1
    13    23     4    2
    14    13    33    1
    15    11    10    1
    16    11    19    1
    17    31    10    1
    18    35    17    1
    19     4    19   am
    20     4     3    1
    21    10    30    1
    22    10     9    1
    23    19    36    1
    24    17     3   ar
    25    17    16   ar
    26     3     2   ar
    27    18    16    1
    28    24     9   ar
    29     9    22   ar
    30    16     7   ar
    31     2    20   ar
    32     2     8   ar
    33     7     8   ar
    34     7    29    1
    35    20     1   ar
    36     8    21   ar
    37     1    21   ar
    38     1    26    1
    39    21    37    1
