@<TRIPOS>MOLECULE
/home/pku/3cl/gett_pdb/5RU5/5RU5_mol2/ligand/5RU5_BXW.pdb
 20 21 0 0 0
SMALL
GASTEIGER

@<TRIPOS>ATOM
      1  O19      -45.7000  -29.4640    2.8750 O.co2 201  BXW201     -0.5446
      2  C20      -46.9260  -29.2070    2.8200 C.2   201  BXW201      0.0717
      3  C21      -47.7470  -29.1430    4.0740 C.ar  201  BXW201     -0.0015
      4  O22      -47.4960  -29.0170    1.7410 O.co2 201  BXW201     -0.5446
      5  C23      -47.0620  -29.1090    5.2980 C.ar  201  BXW201     -0.0511
      6  C24      -47.7910  -29.0690    6.4670 C.ar  201  BXW201     -0.0388
      7  C25      -49.1390  -29.1350    4.0220 C.ar  201  BXW201     -0.0377
      8  C26      -49.8750  -29.0880    5.2110 C.ar  201  BXW201      0.0301
      9  C27      -49.1850  -29.0620    6.4080 C.ar  201  BXW201      0.0470
     10  N28      -49.9600  -29.0180    7.7690 N.am  201  BXW201     -0.2839
     11  C29      -51.3620  -29.5620    7.8970 C.2   201  BXW201      0.2274
     12  C30      -51.8790  -30.1330    6.5860 C.3   201  BXW201      0.0752
     13  S31      -51.6230  -29.0950    5.2500 S.3   201  BXW201     -0.1140
     14  O32      -51.9190  -29.5330    8.9160 O.2   201  BXW201     -0.2746
     15  H23      -46.1320  -29.1200    5.3200 H     201  BXW201      0.0625
     16  H24      -47.3570  -29.0510    7.2890 H     201  BXW201      0.0637
     17  H25      -49.5750  -29.1310    3.2390 H     201  BXW201      0.0636
     18 HN28      -49.5770  -28.6770    8.4590 H     201  BXW201      0.1549
     19  H30      -51.4120  -30.9650    6.4140 H     201  BXW201      0.0474
     20 H30A      -52.8340  -30.2750    6.6770 H     201  BXW201      0.0474
@<TRIPOS>UNITY_ATOM_ATTR
1 1
charge -1
@<TRIPOS>BOND
     1     4     2   ar
     2     2     1   ar
     3     2     3    1
     4    17     7    1
     5     7     3   ar
     6     7     8   ar
     7     3     5   ar
     8     8    13    1
     9     8     9   ar
    10    13    12    1
    11     5    15    1
    12     5     6   ar
    13     9     6   ar
    14     9    10    1
    15    19    12    1
    16     6    16    1
    17    12    20    1
    18    12    11    1
    19    10    11   am
    20    10    18    1
    21    11    14    2
