EVE
  -OEChem-02242320023D

 20 21  0     0  0  0  0  0  0999 V2000
    2.8590    0.0210   -1.4730 N   0  0  0  0  0  0  0  0  0  0  0  0
    2.3350    0.0170    0.0980 S   0  0  0  0  0  0  0  0  0  0  0  0
   -0.1970   -1.1190    0.0430 N   0  0  0  0  0  0  0  0  0  0  0  0
    2.7140    1.2700    0.6510 O   0  0  0  0  0  0  0  0  0  0  0  0
    0.5730    0.0030    0.0600 C   0  0  0  0  0  0  0  0  0  0  0  0
   -0.1800    1.0630    0.0440 N   0  0  0  0  0  0  0  0  0  0  0  0
    2.7340   -1.2300    0.6510 O   0  0  0  0  0  0  0  0  0  0  0  0
   -2.7330   -1.3760   -0.0190 C   0  0  0  0  0  0  0  0  0  0  0  0
   -3.9070   -0.6530   -0.0500 C   0  0  0  0  0  0  0  0  0  0  0  0
   -3.8770    0.7340   -0.0520 C   0  0  0  0  0  0  0  0  0  0  0  0
   -2.6880    1.4060   -0.0090 C   0  0  0  0  0  0  0  0  0  0  0  0
   -1.4870    0.6950    0.0160 C   0  0  0  0  0  0  0  0  0  0  0  0
   -1.5150   -0.7110    0.0100 C   0  0  0  0  0  0  0  0  0  0  0  0
    3.8090    0.0280   -1.6670 H   0  0  0  0  0  0  0  0  0  0  0  0
    2.2160    0.0110   -2.1990 H   0  0  0  0  0  0  0  0  0  0  0  0
   -2.7610   -2.4560   -0.0170 H   0  0  0  0  0  0  0  0  0  0  0  0
   -4.8550   -1.1690   -0.0730 H   0  0  0  0  0  0  0  0  0  0  0  0
   -4.8040    1.2880   -0.0780 H   0  0  0  0  0  0  0  0  0  0  0  0
   -2.6770    2.4870   -0.0110 H   0  0  0  0  0  0  0  0  0  0  0  0
    0.1210   -2.0350    0.0490 H   0  0  0  0  0  0  0  0  0  0  0  0
  1  2  1  0  0  0  0
  1 14  1  0  0  0  0
  1 15  1  0  0  0  0
  2  5  1  0  0  0  0
  2  7  2  0  0  0  0
  2  4  2  0  0  0  0
  3 13  1  0  0  0  0
  3  5  1  0  0  0  0
  5  6  2  0  0  0  0
  6 12  1  0  0  0  0
  8  9  1  0  0  0  0
  8 13  2  0  0  0  0
  8 16  1  0  0  0  0
  9 10  2  0  0  0  0
  9 17  1  0  0  0  0
 10 11  1  0  0  0  0
 10 18  1  0  0  0  0
 11 12  2  0  0  0  0
 11 19  1  0  0  0  0
 12 13  1  0  0  0  0
  3 20  1  0  0  0  0
M  END
> <OPENEYE_ISO_SMILES>
c1ccc2c(c1)[nH]c(n2)S(=O)(=O)N

> <OPENEYE_INCHI>
InChI=1S/C7H7N3O2S/c8-13(11,12)7-9-5-3-1-2-4-6(5)10-7/h1-4H,(H,9,10)(H2,8,11,12)

> <OPENEYE_INCHIKEY>
XRGHQBXKSHAQRB-UHFFFAOYSA-N

> <FORMULA>
C7H7N3O2S

$$$$
