WQM
  -OEChem-02242320043D

 19 19  0     1  0  0  0  0  0999 V2000
   -2.4430   -0.6660   -0.1710 N   0  0  0  0  0  0  0  0  0  0  0  0
    0.6380    1.3660   -0.5990 C   0  0  0  0  0  0  0  0  0  0  0  0
    1.8470    1.1700   -0.0670 C   0  0  0  0  0  0  0  0  0  0  0  0
    0.3740   -1.2090   -0.5260 C   0  0  0  0  0  0  0  0  0  0  0  0
    2.3060   -0.1920    0.2310 C   0  0  0  0  0  0  0  0  0  0  0  0
   -3.6950   -0.5170    0.5740 C   0  0  0  0  0  0  0  0  0  0  0  0
   -1.5000    0.2950   -0.1040 C   0  0  0  0  0  0  0  0  0  0  0  0
   -0.2120    0.1420   -0.8710 C   0  0  1  0  0  0  0  0  0  0  0  0
    1.5570   -1.2760   -0.0090 N   0  0  0  0  0  0  0  0  0  0  0  0
    3.4120   -0.3420    0.7150 O   0  0  0  0  0  0  0  0  0  0  0  0
   -1.6880    1.2820    0.5750 O   0  0  0  0  0  0  0  0  0  0  0  0
   -2.2910   -1.4570   -0.7110 H   0  0  0  0  0  0  0  0  0  0  0  0
    0.2780    2.3590   -0.8220 H   0  0  0  0  0  0  0  0  0  0  0  0
    2.4880    2.0140    0.1440 H   0  0  0  0  0  0  0  0  0  0  0  0
   -0.1950   -2.1100   -0.7020 H   0  0  0  0  0  0  0  0  0  0  0  0
   -3.4760   -0.4380    1.6390 H   0  0  0  0  0  0  0  0  0  0  0  0
   -4.2120    0.3830    0.2420 H   0  0  0  0  0  0  0  0  0  0  0  0
   -4.3290   -1.3860    0.3970 H   0  0  0  0  0  0  0  0  0  0  0  0
   -0.4590    0.1370   -1.9320 H   0  0  0  0  0  0  0  0  0  0  0  0
  2  3  2  0  0  0  0
  3  5  1  0  0  0  0
  2  8  1  0  0  0  0
  5 10  2  0  0  0  0
  5  9  1  0  0  0  0
  1  6  1  0  0  0  0
  1  7  1  0  0  0  0
  7  8  1  0  0  0  0
  4  8  1  0  0  0  0
  4  9  2  0  0  0  0
  7 11  2  0  0  0  0
  1 12  1  0  0  0  0
  2 13  1  0  0  0  0
  3 14  1  0  0  0  0
  4 15  1  0  0  0  0
  6 16  1  0  0  0  0
  6 17  1  0  0  0  0
  6 18  1  0  0  0  0
  8 19  1  0  0  0  0
M  END
> <OPENEYE_ISO_SMILES>
CNC(=O)[C@H]1C=CC(=O)N=C1

> <OPENEYE_INCHI>
InChI=1S/C7H8N2O2/c1-8-7(11)5-2-3-6(10)9-4-5/h2-5H,1H3,(H,8,11)/t5-/m0/s1

> <OPENEYE_INCHIKEY>
VENCKILMSBWPLT-YFKPBYRVSA-N

> <FORMULA>
C7H8N2O2

$$$$
