@<TRIPOS>MOLECULE
/home/pku/3cl/gett_pdb/8AZ8/8AZ8_mol2/ligand/8AZ8_OEI.pdb
 24 24 0 0 0
SMALL
GASTEIGER

@<TRIPOS>ATOM
      1  C10       13.6800  -25.0800   14.7390 C.ar  201  OEI201     -0.0615
      2  C02       19.2070  -21.5800   15.6280 C.3   201  OEI201      0.0567
      3  C03       19.2040  -23.0770   15.3130 C.3   201  OEI201      0.0194
      4  C05       17.3820  -24.6020   15.6250 C.3   201  OEI201      0.0213
      5  C06       16.0900  -25.1430   15.0020 C.ar  201  OEI201     -0.0336
      6  C07       16.1550  -26.1990   14.1130 C.ar  201  OEI201     -0.0573
      7  C08       14.9890  -26.7020   13.5260 C.ar  201  OEI201     -0.0615
      8  C09       13.7560  -26.1390   13.8320 C.ar  201  OEI201     -0.0617
      9  C11       14.8500  -24.5950   15.3210 C.ar  201  OEI201     -0.0573
     10  N04       17.9030  -23.4990   14.8180 N.3   201  OEI201     -0.3099
     11  O01       19.6550  -21.4130   16.9470 O.3   201  OEI201     -0.3938
     12 H101       12.7230  -24.6390   14.9880 H     201  OEI201      0.0618
     13 H022       18.2020  -21.1820   15.5300 H     201  OEI201      0.0570
     14 H021       19.8730  -21.0630   14.9460 H     201  OEI201      0.0570
     15 H031       19.9560  -23.2840   14.5590 H     201  OEI201      0.0446
     16 H032       19.4390  -23.6320   16.2150 H     201  OEI201      0.0446
     17 H051       17.1760  -24.2470   16.6300 H     201  OEI201      0.0473
     18 H052       18.1200  -25.3960   15.6700 H     201  OEI201      0.0473
     19 H071       17.1140  -26.6390   13.8690 H     201  OEI201      0.0621
     20 H081       15.0470  -27.5320   12.8330 H     201  OEI201      0.0618
     21 H091       12.8550  -26.5210   13.3670 H     201  OEI201      0.0618
     22 H111       14.7940  -23.7800   16.0320 H     201  OEI201      0.0621
     23 H041       17.9970  -23.8040   13.8700 H     201  OEI201      0.1223
     24 H011       19.7190  -20.4930   17.1450 H     201  OEI201      0.2095
@<TRIPOS>BOND
     1    20     7    1
     2    21     8    1
     3     7     8   ar
     4     7     6   ar
     5     8     1   ar
     6    19     6    1
     7    23    10    1
     8     6     5   ar
     9    15     3    1
    10     1    12    1
    11     1     9   ar
    12    10     3    1
    13    10     4    1
    14    14     2    1
    15     5     9   ar
    16     5     4    1
    17     3     2    1
    18     3    16    1
    19     9    22    1
    20    13     2    1
    21     4    18    1
    22     4    17    1
    23     2    11    1
    24    11    24    1
