@<TRIPOS>MOLECULE
/home/pku/3cl/gett_pdb/7L10/7L10_mol2/ligand/7L10_XEY.pdb
 29 32 0 0 0
SMALL
GASTEIGER

@<TRIPOS>ATOM
      1  C1         6.0620   -0.3700   25.9140 C.ar  400  XEY400      0.0585
      2  C2         6.7750    0.1070   24.8270 C.ar  400  XEY400      0.0116
      3  C5         8.2370   -0.2760   22.8140 C.ar  400  XEY400      0.0566
      4  C6         7.4080   -2.1460   24.2970 C.ar  400  XEY400      0.0116
      5  C11        9.0630    0.8500   22.8750 C.ar  400  XEY400      0.0063
      6  C12        8.6680   -1.2510   19.1490 C.ar  400  XEY400      0.0860
      7  C13       10.6900    2.5310   21.8360 C.ar  400  XEY400      0.0111
      8  C14        9.7410   -1.8770   18.5760 C.ar  400  XEY400      0.0208
      9  C15        9.6060   -2.5440   17.4050 C.ar  400  XEY400      0.0222
     10  C16        8.3810   -2.5780   16.7880 C.ar  400  XEY400      0.0990
     11  C17        7.4240   -1.3050   18.4990 C.ar  400  XEY400      0.1164
     12  C10        9.7730    1.3130   21.7120 C.ar  400  XEY400      0.0184
     13  C18       10.7600    3.5690   20.9020 C.ar  400  XEY400      0.0685
     14  C19       11.6370    4.6220   21.1050 C.ar  400  XEY400      0.0103
     15  C20       12.4450    4.6580   22.2200 C.ar  400  XEY400      0.0007
     16  C21       12.3890    3.6490   23.1500 C.ar  400  XEY400      0.0000
     17  C22       11.5190    2.5890   22.9640 C.ar  400  XEY400      0.0007
     18  C23        9.9070    3.6020   19.6330 C.1   400  XEY400      0.1004
     19  C3         6.0200   -1.7220   26.1980 C.ar  400  XEY400      0.0228
     20  C4         7.4570   -0.7880   24.0210 C.ar  400  XEY400      0.0063
     21  C7         6.6920   -2.6130   25.3850 C.ar  400  XEY400      0.0585
     22  C8         8.1210   -0.9780   21.5220 C.ar  400  XEY400      0.2647
     23  C9         9.6660    0.6150   20.4680 C.ar  400  XEY400      0.0830
     24  N1         8.8160   -0.5340   20.4000 N.ar  400  XEY400     -0.2716
     25  N2         7.3220   -1.9710   17.3390 N.ar  400  XEY400     -0.2408
     26  N3         9.2840    3.6380   18.6900 N.1   400  XEY400     -0.1908
     27  O1         7.3200   -2.1020   21.4270 O.2   400  XEY400     -0.2666
     28 CL1         5.2000    0.7750   26.9680 Cl    400  XEY400     -0.0822
     29 CL2         6.6290   -4.3580   25.7300 Cl    400  XEY400     -0.0822
@<TRIPOS>BOND
     1    10    25   ar
     2    10     9   ar
     3    25    11   ar
     4     9     8   ar
     5    11     6   ar
     6     8     6   ar
     7    26    18    3
     8     6    24    1
     9    18    13    1
    10    24    23   ar
    11    24    22   ar
    12    23    12   ar
    13    13    14   ar
    14    13     7   ar
    15    14    15   ar
    16    27    22    2
    17    22     3   ar
    18    12     7    1
    19    12     5   ar
    20     7    17   ar
    21    15    16   ar
    22     3     5   ar
    23     3    20    1
    24    17    16   ar
    25    20     4   ar
    26    20     2   ar
    27     4    21   ar
    28     2     1   ar
    29    21    29    1
    30    21    19   ar
    31     1    19   ar
    32     1    28    1
