60P
  -OEChem-02242320013D

 15 15  0     0  0  0  0  0  0999 V2000
    1.0110    1.4090   -0.0000 S   0  0  0  0  0  0  0  0  0  0  0  0
   -0.1270    0.0690   -0.0000 C   0  0  0  0  0  0  0  0  0  0  0  0
    0.5690   -1.1080   -0.0000 C   0  0  0  0  0  0  0  0  0  0  0  0
    1.9320   -0.9340    0.0000 C   0  0  0  0  0  0  0  0  0  0  0  0
    2.3410    0.3410    0.0000 C   0  0  0  0  0  0  0  0  0  0  0  0
   -0.0930   -2.4620   -0.0000 C   0  0  0  0  0  0  0  0  0  0  0  0
   -1.5860    0.1930   -0.0000 C   0  0  0  0  0  0  0  0  0  0  0  0
   -2.2810   -0.8040    0.0000 O   0  0  0  0  0  0  0  0  0  0  0  0
   -2.1580    1.4150    0.0000 O   0  0  0  0  0  0  0  0  0  0  0  0
    2.6220   -1.7640    0.0010 H   0  0  0  0  0  0  0  0  0  0  0  0
    3.3760    0.6510    0.0000 H   0  0  0  0  0  0  0  0  0  0  0  0
   -0.2530   -2.7890   -1.0280 H   0  0  0  0  0  0  0  0  0  0  0  0
    0.5470   -3.1790    0.5140 H   0  0  0  0  0  0  0  0  0  0  0  0
   -1.0520   -2.3970    0.5140 H   0  0  0  0  0  0  0  0  0  0  0  0
   -3.1250    1.4460    0.0000 H   0  0  0  0  0  0  0  0  0  0  0  0
  3  6  1  0  0  0  0
  3  4  1  0  0  0  0
  4  5  2  0  0  0  0
  2  3  2  0  0  0  0
  1  5  1  0  0  0  0
  7  8  2  0  0  0  0
  2  7  1  0  0  0  0
  1  2  1  0  0  0  0
  7  9  1  0  0  0  0
  4 10  1  0  0  0  0
  5 11  1  0  0  0  0
  6 12  1  0  0  0  0
  6 13  1  0  0  0  0
  6 14  1  0  0  0  0
  9 15  1  0  0  0  0
M  END
> <OPENEYE_ISO_SMILES>
Cc1ccsc1C(=O)O

> <OPENEYE_INCHI>
InChI=1S/C6H6O2S/c1-4-2-3-9-5(4)6(7)8/h2-3H,1H3,(H,7,8)

> <OPENEYE_INCHIKEY>
IFLKEBSJTZGCJG-UHFFFAOYSA-N

> <FORMULA>
C6H6O2S

$$$$
