@<TRIPOS>MOLECULE
/home/pku/3cl/gett_pdb/7KQB/7KQB_mol2/ligand/7KQB_NAG.pdb
 28 28 0 0 0
SMALL
GASTEIGER

@<TRIPOS>ATOM
      1  C1       237.8510  180.2890  213.5160 C.3   1301  NAG1301     0.1078
      2  C2       239.1140  180.8480  212.8170 C.3   1301  NAG1301     0.0801
      3  C3       240.1580  179.7420  212.6320 C.3   1301  NAG1301     0.1043
      4  C4       240.4970  179.1070  213.9860 C.3   1301  NAG1301     0.1110
      5  C5       239.2360  178.5730  214.6890 C.3   1301  NAG1301     0.1104
      6  C6       239.5020  178.0300  216.1000 C.3   1301  NAG1301     0.0729
      7  C7       238.3850  182.7070  211.4030 C.2   1301  NAG1301     0.2103
      8  C8       238.0750  183.1910  209.9820 C.3   1301  NAG1301     0.0122
      9  N2       238.7750  181.4420  211.5220 N.am  1301  NAG1301    -0.3075
     10  O3       241.3760  180.2850  212.0500 O.3   1301  NAG1301    -0.3872
     11  O4       241.3990  178.0100  213.7270 O.3   1301  NAG1301    -0.3865
     12  O5       238.2240  179.6530  214.7790 O.3   1301  NAG1301    -0.3639
     13  O6       240.0100  179.0750  216.9560 O.3   1301  NAG1301    -0.3924
     14  O7       238.2640  183.4340  212.3890 O.2   1301  NAG1301    -0.2761
     15  H1       237.3350  179.5660  212.8850 H     1301  NAG1301     0.0642
     16  H2       239.5490  181.6190  213.4530 H     1301  NAG1301     0.0551
     17  H3       239.7560  178.9820  211.9610 H     1301  NAG1301     0.0639
     18  H4       240.9980  179.8410  214.6170 H     1301  NAG1301     0.0646
     19  H5       238.8140  177.7670  214.0880 H     1301  NAG1301     0.0646
     20  H61      238.5750  177.6450  216.5250 H     1301  NAG1301     0.0584
     21  H62      240.2220  177.2130  216.0640 H     1301  NAG1301     0.0584
     22  H81      237.7830  184.2410  210.0020 H     1301  NAG1301     0.0322
     23  H82      238.9590  183.0770  209.3560 H     1301  NAG1301     0.0322
     24  H83      237.2590  182.6000  209.5660 H     1301  NAG1301     0.0322
     25  HN2      238.7480  180.8480  210.7060 H     1301  NAG1301     0.1491
     26  HO3      241.1620  180.7500  211.2380 H     1301  NAG1301     0.2100
     27  HO4      242.0880  178.3530  213.1520 H     1301  NAG1301     0.2100
     28  HO6      240.1190  178.7170  217.8400 H     1301  NAG1301     0.2095
@<TRIPOS>BOND
     1    23     8    1
     2    24     8    1
     3     8    22    1
     4     8     7    1
     5    25     9    1
     6    26    10    1
     7     7     9   am
     8     7    14    2
     9     9     2    1
    10    17     3    1
    11    10     3    1
    12     3     2    1
    13     3     4    1
    14     2    16    1
    15     2     1    1
    16    15     1    1
    17    27    11    1
    18     1    12    1
    19    11     4    1
    20     4    18    1
    21     4     5    1
    22    19     5    1
    23     5    12    1
    24     5     6    1
    25    21     6    1
    26     6    20    1
    27     6    13    1
    28    13    28    1
