@<TRIPOS>MOLECULE
/home/pku/3cl/gett_pdb/6W6Y/6W6Y_mol2/ligand/6W6Y_AMP.pdb
 23 25 0 0 0
SMALL
GASTEIGER

@<TRIPOS>ATOM
      1  P          9.9490   -9.6750   13.2690 P.3   201  AMP201      0.5327
      2  O1P       10.9490   -9.2590   12.1480 O.2   201  AMP201     -0.2224
      3  O2P        8.5610   -9.1070   13.0570 O.3   201  AMP201     -0.1145
      4  O3P        9.9360  -11.1770   13.5710 O.3   201  AMP201     -0.1145
      5  O5'       10.5880   -9.0620   14.6360 O.3   201  AMP201     -0.2675
      6  C5'       11.1510   -7.7280   14.6390 C.3   201  AMP201      0.1859
      7  C4'       11.6630   -7.4640   16.0430 C.3   201  AMP201      0.1803
      8  O4'       10.5120   -7.3100   16.9150 O.3   201  AMP201     -0.3306
      9  C3'       12.4990   -8.5730   16.6720 C.3   201  AMP201      0.2161
     10  O3'       13.4830   -8.0010   17.5350 O.3   201  AMP201     -0.2175
     11  C2'       11.4780   -9.3590   17.5090 C.3   201  AMP201      0.2337
     12  O2'       12.0630  -10.0170   18.6130 O.3   201  AMP201     -0.2155
     13  C1'       10.5670   -8.2380   17.9800 C.3   201  AMP201      0.2409
     14  N9         9.1900   -8.5990   18.2830 N.ar  201  AMP201     -0.2693
     15  C8         8.4240   -9.6240   17.7740 C.ar  201  AMP201      0.1816
     16  N7         7.1670   -9.5640   18.1520 N.ar  201  AMP201     -0.2193
     17  C5         7.0960   -8.4220   18.9460 C.ar  201  AMP201      0.1518
     18  C6         6.0320   -7.7960   19.6380 C.ar  201  AMP201      0.1919
     19  N6         4.7640   -8.2010   19.5940 N.pl3 201  AMP201     -0.1054
     20  N1         6.2970   -6.6190   20.2630 N.ar  201  AMP201     -0.2040
     21  C2         7.5610   -6.1760   20.2910 C.ar  201  AMP201      0.2016
     22  N3         8.6430   -6.6830   19.6880 N.ar  201  AMP201     -0.2048
     23  C4         8.3360   -7.8140   19.0250 C.ar  201  AMP201      0.1692
@<TRIPOS>BOND
     1     2     1    2
     2     3     1    1
     3     1     4    1
     4     1     5    1
     5     5     6    1
     6     6     7    1
     7     7     9    1
     8     7     8    1
     9     9    11    1
    10     9    10    1
    11     8    13    1
    12    11    13    1
    13    11    12    1
    14    15    16   ar
    15    15    14   ar
    16    13    14    1
    17    16    17   ar
    18    14    23   ar
    19    17    23   ar
    20    17    18   ar
    21    23    22   ar
    22    19    18    1
    23    18    20   ar
    24    22    21   ar
    25    20    21   ar
