@<TRIPOS>MOLECULE
/home/pku/3cl/gett_pdb/5RUA/5RUA_mol2/ligand/5RUA_3EU.pdb
 17 17 0 0 0
SMALL
GASTEIGER

@<TRIPOS>ATOM
      1  C12      -43.7980  -31.7000    2.2450 C.2   201  3EU201      0.0914
      2  C13      -43.2960  -31.0550    0.9450 C.3   201  3EU201      0.0213
      3  C15      -44.0110  -29.7720    0.6080 C.ar  201  3EU201     -0.0384
      4  C16      -43.3180  -28.5670    0.6590 C.ar  201  3EU201     -0.0397
      5  C17      -44.0460  -27.4620    0.4170 C.ar  201  3EU201      0.0426
      6  C18      -45.3400  -27.4570    0.1300 C.ar  201  3EU201     -0.0250
      7  C19      -45.9970  -28.5990    0.1390 C.ar  201  3EU201      0.0426
      8  C20      -45.3350  -29.7640    0.4230 C.ar  201  3EU201     -0.0397
      9  O14      -44.3230  -32.8420    2.0610 O.co2 201  3EU201     -0.8474
     10 CL1       -47.7060  -28.6410   -0.1850 Cl    201  3EU201     -0.0835
     11 CL2       -43.2360  -25.9340    0.3950 Cl    201  3EU201     -0.0835
     12  H4       -42.3480  -30.8690    1.0350 H     201  3EU201      0.0381
     13  H5       -43.4230  -31.6830    0.2170 H     201  3EU201      0.0381
     14  OXT      -43.5690  -31.1490    3.3350 O.co2 201  3EU201     -0.3087
     15  H6       -42.4050  -28.5290    0.8320 H     201  3EU201      0.0635
     16  H7       -45.7860  -26.6560   -0.0270 H     201  3EU201      0.0647
     17  H8       -45.7970  -30.5710    0.3930 H     201  3EU201      0.0635
@<TRIPOS>UNITY_ATOM_ATTR
9 1
charge -1
@<TRIPOS>BOND
     1    10     7    1
     2    16     6    1
     3     6     7   ar
     4     6     5   ar
     5     7     8   ar
     6    13     2    1
     7    17     8    1
     8    11     5    1
     9     5     4   ar
    10     8     3   ar
    11     3     4   ar
    12     3     2    1
    13     4    15    1
    14     2    12    1
    15     2     1    1
    16     9     1   ar
    17     1    14   ar
