T4V
  -OEChem-02242320043D

 40 42  0     0  0  0  0  0  0999 V2000
   -0.6950   -0.0350    0.7630 N   0  0  0  0  0  0  0  0  0  0  0  0
    0.3800    0.3950    1.6680 C   0  0  0  0  0  0  0  0  0  0  0  0
    1.5860    0.7990    0.8590 C   0  0  0  0  0  0  0  0  0  0  0  0
    1.9010    2.1150    0.7120 C   0  0  0  0  0  0  0  0  0  0  0  0
    3.0120    2.5080   -0.0320 C   0  0  0  0  0  0  0  0  0  0  0  0
    3.8140    1.5870   -0.6330 C   0  0  0  0  0  0  0  0  0  0  0  0
    4.3290   -0.7610   -1.1040 C   0  0  0  0  0  0  0  0  0  0  0  0
    2.1040   -1.5490    0.3940 C   0  0  0  0  0  0  0  0  0  0  0  0
   -1.2670    1.1110    0.0440 C   0  0  0  0  0  0  0  0  0  0  0  0
   -3.2340   -0.2710   -0.3590 N   0  0  0  0  0  0  0  0  0  0  0  0
   -5.0470    1.0440   -1.4090 C   0  0  0  0  0  0  0  0  0  0  0  0
   -5.3530   -0.8110    0.0170 O   0  0  0  0  0  0  0  0  0  0  0  0
   -4.5570   -0.0790   -0.5330 C   0  0  0  0  0  0  0  0  0  0  0  0
    4.0200   -2.0770   -0.9470 C   0  0  0  0  0  0  0  0  0  0  0  0
    2.9090   -2.4700   -0.2020 C   0  0  0  0  0  0  0  0  0  0  0  0
    2.3940   -0.1810    0.2590 C   0  0  0  0  0  0  0  0  0  0  0  0
   -2.2520    0.6050   -1.0150 C   0  0  0  0  0  0  0  0  0  0  0  0
   -2.7350   -1.3610    0.4930 C   0  0  0  0  0  0  0  0  0  0  0  0
   -1.7310   -0.7780    1.4930 C   0  0  0  0  0  0  0  0  0  0  0  0
    3.5200    0.2190   -0.5030 C   0  0  0  0  0  0  0  0  0  0  0  0
    0.0380    1.2440    2.2600 H   0  0  0  0  0  0  0  0  0  0  0  0
    0.6470   -0.4270    2.3320 H   0  0  0  0  0  0  0  0  0  0  0  0
    1.2800    2.8660    1.1780 H   0  0  0  0  0  0  0  0  0  0  0  0
    3.2400    3.5590   -0.1330 H   0  0  0  0  0  0  0  0  0  0  0  0
    4.6710    1.9060   -1.2070 H   0  0  0  0  0  0  0  0  0  0  0  0
    5.1900   -0.4720   -1.6870 H   0  0  0  0  0  0  0  0  0  0  0  0
    1.2460   -1.8680    0.9670 H   0  0  0  0  0  0  0  0  0  0  0  0
   -1.7900    1.7580    0.7480 H   0  0  0  0  0  0  0  0  0  0  0  0
   -0.4680    1.6720   -0.4410 H   0  0  0  0  0  0  0  0  0  0  0  0
   -5.1810    1.9430   -0.8070 H   0  0  0  0  0  0  0  0  0  0  0  0
   -4.3150    1.2380   -2.1940 H   0  0  0  0  0  0  0  0  0  0  0  0
   -5.9980    0.7640   -1.8610 H   0  0  0  0  0  0  0  0  0  0  0  0
    4.6430   -2.8290   -1.4100 H   0  0  0  0  0  0  0  0  0  0  0  0
    2.6840   -3.5210   -0.0970 H   0  0  0  0  0  0  0  0  0  0  0  0
   -2.7640    1.4510   -1.4730 H   0  0  0  0  0  0  0  0  0  0  0  0
   -1.7130    0.0430   -1.7780 H   0  0  0  0  0  0  0  0  0  0  0  0
   -3.5670   -1.8150    1.0320 H   0  0  0  0  0  0  0  0  0  0  0  0
   -2.2460   -2.1140   -0.1250 H   0  0  0  0  0  0  0  0  0  0  0  0
   -1.2690   -1.5870    2.0580 H   0  0  0  0  0  0  0  0  0  0  0  0
   -2.2480   -0.1040    2.1760 H   0  0  0  0  0  0  0  0  0  0  0  0
 11 13  1  0  0  0  0
 12 13  2  0  0  0  0
 10 13  1  0  0  0  0
 10 18  1  0  0  0  0
 18 19  1  0  0  0  0
  1 19  1  0  0  0  0
  1  2  1  0  0  0  0
  2  3  1  0  0  0  0
  3  4  1  0  0  0  0
  4  5  2  0  0  0  0
  5  6  1  0  0  0  0
  6 20  2  0  0  0  0
  7 20  1  0  0  0  0
  7 14  2  0  0  0  0
 14 15  1  0  0  0  0
  8 15  2  0  0  0  0
  8 16  1  0  0  0  0
  3 16  2  0  0  0  0
 16 20  1  0  0  0  0
  1  9  1  0  0  0  0
  9 17  1  0  0  0  0
 10 17  1  0  0  0  0
  2 21  1  0  0  0  0
  2 22  1  0  0  0  0
  4 23  1  0  0  0  0
  5 24  1  0  0  0  0
  6 25  1  0  0  0  0
  7 26  1  0  0  0  0
  8 27  1  0  0  0  0
  9 28  1  0  0  0  0
  9 29  1  0  0  0  0
 11 30  1  0  0  0  0
 11 31  1  0  0  0  0
 11 32  1  0  0  0  0
 14 33  1  0  0  0  0
 15 34  1  0  0  0  0
 17 35  1  0  0  0  0
 17 36  1  0  0  0  0
 18 37  1  0  0  0  0
 18 38  1  0  0  0  0
 19 39  1  0  0  0  0
 19 40  1  0  0  0  0
M  END
> <OPENEYE_ISO_SMILES>
CC(=O)N1CCN(CC1)Cc2cccc3c2cccc3

> <OPENEYE_INCHI>
InChI=1S/C17H20N2O/c1-14(20)19-11-9-18(10-12-19)13-16-7-4-6-15-5-2-3-8-17(15)16/h2-8H,9-13H2,1H3

> <OPENEYE_INCHIKEY>
OCMXSYZDVBVSSV-UHFFFAOYSA-N

> <FORMULA>
C17H20N2O

$$$$
