@<TRIPOS>MOLECULE
/home/pku/3cl/gett_pdb/5RSG/5RSG_mol2/ligand/5RSG_W5J.pdb
 54 18 0 0 0
SMALL
GASTEIGER

@<TRIPOS>ATOM
      1  C10      -44.2870  -29.1260    6.2990 C.3   201  W5J201      0.0000
      2  C10      -44.2930  -29.1300    6.3180 C.3   201  W5J201     -0.0309
      3  C15      -47.9390  -29.0040    4.5750 C.3   201  W5J201     -0.0309
      4  C15      -47.9420  -28.9930    4.5770 C.3   201  W5J201      0.0000
      5  C01      -46.4690  -29.0720    2.1060 C.3   201  W5J201     -0.0531
      6  C01      -46.4780  -29.0860    2.1040 C.3   201  W5J201     -0.0309
      7  C03      -44.0040  -29.2480    2.4050 C.3   201  W5J201      0.0000
      8  C03      -44.0230  -28.9910    2.4650 C.3   201  W5J201     -0.0531
      9  C04      -43.8710  -30.6240    1.6310 C.3   201  W5J201     -0.0531
     10  C04      -43.7010  -30.4540    2.2560 C.3   201  W5J201     -0.0531
     11  C05      -43.3780  -31.8080    2.4810 C.2   201  W5J201      0.0868
     12  C05      -43.2940  -30.6760    0.8400 C.2   201  W5J201     -0.1256
     13  C08      -45.3910  -29.1100    4.3270 C.3   201  W5J201      0.0000
     14  C08      -45.3960  -29.1050    4.3410 C.1   201  W5J201      0.1795
     15  C12      -46.5450  -29.0520    6.3430 C.3   201  W5J201      0.0000
     16  C12      -46.5520  -29.0550    6.3480 C.3   201  W5J201      0.0000
     17  C14      -48.5850  -28.9660    5.7580 C.3   201  W5J201      0.0000
     18  C14      -48.5900  -28.9650    5.7600 C.3   201  W5J201     -0.0309
     19  C16      -46.6010  -29.0640    4.9690 C.3   201  W5J201      0.0000
     20  C16      -46.6060  -29.0570    4.9760 C.3   201  W5J201      0.0000
     21  N02      -45.2880  -29.1320    2.9490 N.3   201  W5J201      0.0000
     22  N02      -45.3090  -29.0800    2.9630 N.3   201  W5J201      0.0000
     23  N09      -44.2890  -29.1260    5.0060 N.1   201  W5J201     -0.1795
     24  N09      -44.2880  -29.1260    5.0320 N.3   201  W5J201      0.0000
     25  N11      -45.3680  -29.0880    6.9610 N.3   201  W5J201      0.0000
     26  N11      -45.3770  -29.0960    6.9710 N.3   201  W5J201      0.0000
     27  N13      -47.7510  -29.0050    6.7990 N.3   201  W5J201      0.0000
     28  N13      -47.7570  -29.0110    6.8020 N.3   201  W5J201     -0.1629
     29  O06      -42.7930  -31.4960    3.4560 O.co2 201  W5J201     -0.5434
     30  O06      -42.2490  -30.2670    0.4150 O.3   201  W5J201      0.0000
     31  O07      -43.4750  -33.0130    2.2460 O.co2 201  W5J201     -0.5434
     32  O07      -44.1180  -31.2520    0.1890 O.co2 201  W5J201     -0.8744
     33 H101      -43.4760  -29.1550    6.7530 H     201  W5J201      0.0309
     34 H101      -43.4850  -29.1670    6.7770 H     201  W5J201      0.0000
     35 H151      -48.3020  -29.0060    3.7200 H     201  W5J201      0.0000
     36 H151      -48.3020  -28.9800    3.7210 H     201  W5J201      0.0309
     37 H013      -46.1910  -29.0840    1.1770 H     201  W5J201      0.0265
     38 H013      -47.0220  -29.8670    2.2890 H     201  W5J201      0.0000
     39 H012      -46.9560  -28.2500    2.2750 H     201  W5J201      0.0000
     40 H012      -46.1880  -29.1210    1.1790 H     201  W5J201      0.0000
     41 H011      -47.0350  -29.8410    2.2720 H     201  W5J201      0.0309
     42 H011      -46.9930  -28.2750    2.2390 H     201  W5J201      0.0265
     43 H031      -43.8860  -28.5310    1.7630 H     201  W5J201      0.0265
     44 H031      -44.0330  -28.5330    1.6100 H     201  W5J201      0.0000
     45 H032      -43.2930  -29.1830    3.0560 H     201  W5J201      0.0265
     46 H032      -43.3910  -28.5600    3.0590 H     201  W5J201      0.0000
     47 H042      -43.2480  -30.4990    0.8980 H     201  W5J201      0.0265
     48 H042      -44.4840  -30.9910    2.4540 H     201  W5J201      0.0265
     49 H041      -44.7340  -30.8590    1.2580 H     201  W5J201      0.0265
     50 H041      -42.9750  -30.7120    2.8450 H     201  W5J201      0.0265
     51 H141      -49.5110  -28.9420    5.8400 H     201  W5J201      0.0309
     52 H141      -49.5160  -28.9400    5.8410 H     201  W5J201      0.0000
     53 H131      -47.9770  -28.9820    7.6280 H     201  W5J201      0.1629
     54 H131      -47.9840  -29.0020    7.6310 H     201  W5J201      0.0000
@<TRIPOS>UNITY_ATOM_ATTR
31 1
charge -1
32 1
charge -1
@<TRIPOS>BOND
     1    32    12    2
     2    47     9    1
     3    37     5    1
     4    49     9    1
     5     9    10    1
     6    43     8    1
     7     6    41    1
     8     5    42    1
     9    31    11   ar
    10    10    48    1
    11    10    50    1
    12     8    45    1
    13    11    29   ar
    14    36     3    1
    15    14    23    3
    16    18    51    1
    17     2    33    1
    18    28    53    1
