@<TRIPOS>MOLECULE
/home/pku/3cl/gett_pdb/7M02/7M02_mol2/ligand/7M02_YL7.pdb
 30 31 0 0 0
SMALL
GASTEIGER

@<TRIPOS>ATOM
      1  C11        9.0700   19.8120   27.5310 C.3   401  YL7401      0.1287
      2  C16        5.6500   22.4970   26.0250 C.3   401  YL7401      0.1156
      3  C17        6.8720   21.8450   26.7370 C.3   401  YL7401      0.0326
      4  O18        6.8060   20.3170   23.5020 O.2   401  YL7401     -0.2734
      5  C23       11.4790   26.0580   24.5390 C.3   401  YL7401      0.2390
      6  C24       11.4790   27.6200   24.6110 C.ar  401  YL7401      0.0488
      7  C29       12.3270   29.7550   25.5610 C.ar  401  YL7401     -0.0001
      8  C28       11.4730   30.4960   24.7380 C.ar  401  YL7401      0.0023
      9  C27       10.6260   29.8240   23.8550 C.ar  401  YL7401      0.0294
     10  C25       10.6380   28.4070   23.8050 C.ar  401  YL7401      0.1396
     11  C02       11.0610   24.0310   25.8210 C.2   401  YL7401      0.4218
     12  C04       12.2540   22.1360   26.9880 C.3   401  YL7401      0.1761
     13  C05       13.3380   21.8490   28.0470 C.3   401  YL7401      0.0312
     14  C06       14.7570   22.2720   27.6550 C.3   401  YL7401      0.0022
     15  C07       15.2620   21.4420   26.4620 C.3   401  YL7401      0.0001
     16  C08       15.7640   22.2130   28.8550 C.3   401  YL7401      0.0001
     17  C09       10.8630   21.5860   27.4560 C.2   401  YL7401      0.2614
     18  C12        8.0710   19.7110   26.3100 C.3   401  YL7401      0.0335
     19  C13        7.6410   21.0450   25.6650 C.3   401  YL7401      0.0818
     20  C14        6.6380   20.9930   24.5050 C.2   401  YL7401      0.2410
     21  C19        9.2840   18.4630   28.1610 C.3   401  YL7401      0.2036
     22  C30       12.3240   28.3480   25.4940 C.ar  401  YL7401      0.0016
     23  F26        9.8180   27.7930   22.9440 F     401  YL7401     -0.2044
     24  N03       12.0860   23.5610   26.6520 N.am  401  YL7401     -0.1611
     25  N10       10.3700   20.3520   27.1060 N.am  401  YL7401     -0.2030
     26  N15        5.5370   21.8180   24.7130 N.am  401  YL7401     -0.2054
     27  O01       10.3220   23.2720   25.2150 O.2   401  YL7401     -0.2245
     28  O20        8.0410   17.9490   28.5610 O.3   401  YL7401     -0.2185
     29  O21       10.1950   22.3420   28.1610 O.2   401  YL7401     -0.2715
     30  O22       10.8730   25.3950   25.6580 O.3   401  YL7401     -0.4285
@<TRIPOS>BOND
     1    23    10    1
     2     4    20    2
     3    10     9   ar
     4    10     6   ar
     5     9     8   ar
     6    20    26   am
     7    20    19    1
     8     5     6    1
     9     5    30    1
    10     6    22   ar
    11    26     2    1
    12     8     7   ar
    13    27    11    2
    14    22     7   ar
    15    30    11    1
    16    19    18    1
    17    19     3    1
    18    11    24   am
    19     2     3    1
    20    18     1    1
    21    15    14    1
    22    24    12    1
    23    12    17    1
    24    12    13    1
    25    25    17   am
    26    25     1    1
    27    17    29    2
    28     1    21    1
    29    14    13    1
    30    14    16    1
    31    21    28    1
