LQ3
  -OEChem-02242320033D

 16 16  0     1  0  0  0  0  0999 V2000
   -1.7060    1.1860   -0.1490 N   0  0  0  0  0  0  0  0  0  0  0  0
   -2.0540   -1.2470    0.0170 C   0  0  0  0  0  0  0  0  0  0  0  0
   -2.5320    0.1400   -0.0140 C   0  0  0  0  0  0  0  0  0  0  0  0
   -0.4250    1.0570   -0.2630 C   0  0  0  0  0  0  0  0  0  0  0  0
    2.9270   -0.8390   -0.5440 F   0  0  0  0  0  0  0  0  0  0  0  0
    2.4540    0.0160    0.4570 C   0  0  0  0  0  0  0  0  0  0  0  0
    2.4380    1.3300   -0.0210 F   0  0  0  0  0  0  0  0  0  0  0  0
    1.1300   -0.3720    0.8290 O   0  0  0  0  0  0  0  0  0  0  0  0
    0.1880   -0.3250   -0.2450 C   0  0  1  0  0  0  0  0  0  0  0  0
   -0.7480   -1.5060   -0.0920 C   0  0  0  0  0  0  0  0  0  0  0  0
   -3.7260    0.3490    0.0880 O   0  0  0  0  0  0  0  0  0  0  0  0
   -2.7580   -2.0580    0.1280 H   0  0  0  0  0  0  0  0  0  0  0  0
    0.2030    1.9290   -0.3700 H   0  0  0  0  0  0  0  0  0  0  0  0
    3.1090   -0.0470    1.3270 H   0  0  0  0  0  0  0  0  0  0  0  0
    0.7410   -0.4570   -1.1750 H   0  0  0  0  0  0  0  0  0  0  0  0
   -0.3740   -2.5190   -0.0720 H   0  0  0  0  0  0  0  0  0  0  0  0
  5  6  1  0  0  0  0
  6  7  1  0  0  0  0
  6  8  1  0  0  0  0
  2 10  2  0  0  0  0
  9 10  1  0  0  0  0
  2  3  1  0  0  0  0
  8  9  1  0  0  0  0
  4  9  1  0  0  0  0
  3 11  2  0  0  0  0
  1  3  1  0  0  0  0
  1  4  2  0  0  0  0
  2 12  1  0  0  0  0
  4 13  1  0  0  0  0
  6 14  1  0  0  0  0
  9 15  1  0  0  0  0
 10 16  1  0  0  0  0
M  END
> <OPENEYE_ISO_SMILES>
C1=CC(=O)N=C[C@H]1OC(F)F

> <OPENEYE_INCHI>
InChI=1S/C6H5F2NO2/c7-6(8)11-4-1-2-5(10)9-3-4/h1-4,6H/t4-/m0/s1

> <OPENEYE_INCHIKEY>
LTVXNUWMTTYHRL-BYPYZUCNSA-N

> <FORMULA>
C6H5F2NO2

$$$$
