YTS
  -OEChem-02242320043D

 61 65  0     1  0  0  0  0  0999 V2000
    1.7660    1.6550    0.2400 C   0  0  0  0  0  0  0  0  0  0  0  0
    3.5250    2.9070   -0.7430 C   0  0  0  0  0  0  0  0  0  0  0  0
    3.3020    3.3640   -2.0350 C   0  0  0  0  0  0  0  0  0  0  0  0
    4.5310    5.2720   -1.6390 C   0  0  0  0  0  0  0  0  0  0  0  0
    4.7910    4.8870   -0.3360 C   0  0  0  0  0  0  0  0  0  0  0  0
    4.2830    3.6850    0.1280 C   0  0  0  0  0  0  0  0  0  0  0  0
    3.7140    0.5460   -0.4810 C   0  0  0  0  0  0  0  0  0  0  0  0
    3.2150   -0.6700   -0.0760 C   0  0  0  0  0  0  0  0  0  0  0  0
    4.0180   -1.9040   -0.2590 C   0  0  0  0  0  0  0  0  0  0  0  0
    5.2410   -2.0350    0.3270 C   0  0  0  0  0  0  0  0  0  0  0  0
    5.4810   -4.1900   -0.6130 C   0  0  0  0  0  0  0  0  0  0  0  0
    1.9380   -0.7380    0.5150 C   0  0  0  0  0  0  0  0  0  0  0  0
    1.2090    0.4280    0.6740 C   0  0  0  0  0  0  0  0  0  0  0  0
   -0.1370    0.3920    1.2920 C   0  0  0  0  0  0  0  0  0  0  0  0
   -0.2840    0.0160    2.6260 C   0  0  0  0  0  0  0  0  0  0  0  0
   -1.5410   -0.0160    3.2000 C   0  0  0  0  0  0  0  0  0  0  0  0
   -6.5370   -0.9030   -0.4950 C   0  0  0  0  0  0  0  0  0  0  0  0
   -6.9530    0.8690   -2.0770 C   0  0  0  0  0  0  0  0  0  0  0  0
   -6.7660   -0.0290   -3.2970 C   0  0  0  0  0  0  0  0  0  0  0  0
   -6.7640   -1.8470   -1.6430 C   0  0  0  0  0  0  0  0  0  0  0  0
    3.5130   -3.0180   -1.0730 C   0  0  0  0  0  0  0  0  0  0  0  0
   -2.6550    0.3240    2.4530 C   0  0  0  0  0  0  0  0  0  0  0  0
   -2.5160    0.7000    1.1230 C   0  0  0  0  0  0  0  0  0  0  0  0
   -4.8760    0.9750    1.0580 C   0  0  0  0  0  0  0  0  0  0  0  0
   -5.9840    1.3820    0.0840 C   0  0  0  0  0  0  0  0  0  0  0  0
   -1.2590    0.7410    0.5420 C   0  0  0  0  0  0  0  0  0  0  0  0
    2.9900    1.6840   -0.3200 N   0  0  0  0  0  0  0  0  0  0  0  0
    3.8050    4.5140   -2.4370 N   0  0  0  0  0  0  0  0  0  0  0  0
    4.2790   -4.1200   -1.2110 N   0  0  0  0  0  0  0  0  0  0  0  0
    5.9580   -3.1840    0.1390 N   0  0  0  0  0  0  0  0  0  0  0  0
   -6.0690    0.3940   -1.0000 N   0  0  1  0  0  0  0  0  0  0  0  0
   -6.8820   -1.4310   -2.9080 N   0  0  0  0  0  0  0  0  0  0  0  0
    1.1330    2.6890    0.3700 O   0  0  0  0  0  0  0  0  0  0  0  0
    2.4230   -2.9480   -1.6110 O   0  0  0  0  0  0  0  0  0  0  0  0
    6.1530   -5.1940   -0.7520 O   0  0  0  0  0  0  0  0  0  0  0  0
   -3.6120    1.0340    0.3940 O   0  0  0  0  0  0  0  0  0  0  0  0
   -6.8430   -3.0340   -1.4110 O   0  0  0  0  0  0  0  0  0  0  0  0
   -1.7230   -0.4860    4.8610 Cl  0  0  0  0  0  0  0  0  0  0  0  0
    2.7120    2.7700   -2.7170 H   0  0  0  0  0  0  0  0  0  0  0  0
    4.9250    6.2080   -2.0060 H   0  0  0  0  0  0  0  0  0  0  0  0
    5.3870    5.5140    0.3100 H   0  0  0  0  0  0  0  0  0  0  0  0
    4.4700    3.3600    1.1410 H   0  0  0  0  0  0  0  0  0  0  0  0
    4.6930    0.5960   -0.9340 H   0  0  0  0  0  0  0  0  0  0  0  0
    5.6410   -1.2370    0.9350 H   0  0  0  0  0  0  0  0  0  0  0  0
    1.5330   -1.6860    0.8380 H   0  0  0  0  0  0  0  0  0  0  0  0
    0.5830   -0.2510    3.2120 H   0  0  0  0  0  0  0  0  0  0  0  0
   -7.4710   -0.7640    0.0490 H   0  0  0  0  0  0  0  0  0  0  0  0
   -5.7860   -1.3230    0.1750 H   0  0  0  0  0  0  0  0  0  0  0  0
   -6.6930    1.8950   -2.3350 H   0  0  0  0  0  0  0  0  0  0  0  0
   -7.9910    0.8260   -1.7480 H   0  0  0  0  0  0  0  0  0  0  0  0
   -7.5300    0.2050   -4.0380 H   0  0  0  0  0  0  0  0  0  0  0  0
   -5.7800    0.1460   -3.7290 H   0  0  0  0  0  0  0  0  0  0  0  0
   -3.6350    0.2980    2.9050 H   0  0  0  0  0  0  0  0  0  0  0  0
   -4.8720    1.6570    1.9080 H   0  0  0  0  0  0  0  0  0  0  0  0
   -5.0560   -0.0410    1.4090 H   0  0  0  0  0  0  0  0  0  0  0  0
   -6.9360    1.4230    0.6130 H   0  0  0  0  0  0  0  0  0  0  0  0
   -5.7580    2.3620   -0.3340 H   0  0  0  0  0  0  0  0  0  0  0  0
   -1.1500    1.0380   -0.4900 H   0  0  0  0  0  0  0  0  0  0  0  0
    3.9610   -4.8650   -1.7440 H   0  0  0  0  0  0  0  0  0  0  0  0
    6.8280   -3.2750    0.5580 H   0  0  0  0  0  0  0  0  0  0  0  0
   -7.0510   -2.0910   -3.5990 H   0  0  0  0  0  0  0  0  0  0  0  0
  4 28  2  0  0  0  0
  4  5  1  0  0  0  0
  3 28  1  0  0  0  0
  5  6  2  0  0  0  0
  2  3  2  0  0  0  0
  2  6  1  0  0  0  0
  2 27  1  0  0  0  0
 21 34  2  0  0  0  0
  7 27  1  0  0  0  0
  1 27  1  0  0  0  0
  7  8  2  0  0  0  0
 21 29  1  0  0  0  0
  9 21  1  0  0  0  0
 11 29  1  0  0  0  0
  1 33  2  0  0  0  0
  1 13  1  0  0  0  0
  8  9  1  0  0  0  0
  8 12  1  0  0  0  0
  9 10  2  0  0  0  0
 11 35  2  0  0  0  0
 11 30  1  0  0  0  0
 12 13  2  0  0  0  0
 13 14  1  0  0  0  0
 10 30  1  0  0  0  0
 14 15  2  0  0  0  0
 14 26  1  0  0  0  0
 15 16  1  0  0  0  0
 23 26  2  0  0  0  0
 19 32  1  0  0  0  0
 18 19  1  0  0  0  0
 16 22  2  0  0  0  0
 16 38  1  0  0  0  0
 22 23  1  0  0  0  0
 23 36  1  0  0  0  0
 24 36  1  0  0  0  0
 24 25  1  0  0  0  0
 20 32  1  0  0  0  0
 18 31  1  0  0  0  0
 17 31  1  0  0  0  0
 25 31  1  0  0  0  0
 17 20  1  0  0  0  0
 20 37  2  0  0  0  0
  3 39  1  0  0  0  0
  4 40  1  0  0  0  0
  5 41  1  0  0  0  0
  6 42  1  0  0  0  0
  7 43  1  0  0  0  0
 10 44  1  0  0  0  0
 12 45  1  0  0  0  0
 15 46  1  0  0  0  0
 17 47  1  0  0  0  0
 17 48  1  0  0  0  0
 18 49  1  0  0  0  0
 18 50  1  0  0  0  0
 19 51  1  0  0  0  0
 19 52  1  0  0  0  0
 22 53  1  0  0  0  0
 24 54  1  0  0  0  0
 24 55  1  0  0  0  0
 25 56  1  0  0  0  0
 25 57  1  0  0  0  0
 26 58  1  0  0  0  0
 29 59  1  0  0  0  0
 30 60  1  0  0  0  0
 32 61  1  0  0  0  0
M  END
> <OPENEYE_ISO_SMILES>
c1cc(cnc1)n2cc(cc(c2=O)c3cc(cc(c3)Cl)OCC[N@@]4CCNC(=O)C4)c5c[nH]c(=O)[nH]c5=O

> <OPENEYE_INCHI>
InChI=1S/C26H23ClN6O5/c27-18-8-16(9-20(11-18)38-7-6-32-5-4-29-23(34)15-32)21-10-17(22-13-30-26(37)31-24(22)35)14-33(25(21)36)19-2-1-3-28-12-19/h1-3,8-14H,4-7,15H2,(H,29,34)(H2,30,31,35,37)

> <OPENEYE_INCHIKEY>
ROLIIXCVQCAWPI-UHFFFAOYSA-N

> <FORMULA>
C26H23ClN6O5

$$$$
