VWG
  -OEChem-02242320043D

 22 23  0     0  0  0  0  0  0999 V2000
   -2.9130    0.9930    0.0040 N   0  0  0  0  0  0  0  0  0  0  0  0
    0.9710   -1.9040    0.0010 C   0  0  0  0  0  0  0  0  0  0  0  0
    1.7940   -0.7630    0.0010 C   0  0  0  0  0  0  0  0  0  0  0  0
    3.1940   -0.8730    0.0020 C   0  0  0  0  0  0  0  0  0  0  0  0
    3.9580    0.2530    0.0010 C   0  0  0  0  0  0  0  0  0  0  0  0
    3.3710    1.5180   -0.0010 C   0  0  0  0  0  0  0  0  0  0  0  0
    1.1930    0.5230   -0.0010 C   0  0  0  0  0  0  0  0  0  0  0  0
   -4.3190    1.1650    0.0010 O   0  0  0  0  0  0  0  0  0  0  0  0
   -2.3860   -0.2470    0.0010 C   0  0  0  0  0  0  0  0  0  0  0  0
   -3.1170   -1.2170   -0.0040 O   0  0  0  0  0  0  0  0  0  0  0  0
   -0.9140   -0.4270    0.0030 C   0  0  0  0  0  0  0  0  0  0  0  0
   -0.3830   -1.7250   -0.0000 C   0  0  0  0  0  0  0  0  0  0  0  0
    2.0190    1.6640   -0.0020 C   0  0  0  0  0  0  0  0  0  0  0  0
   -0.1350    0.6370   -0.0030 N   0  0  0  0  0  0  0  0  0  0  0  0
   -2.3300    1.7680    0.0030 H   0  0  0  0  0  0  0  0  0  0  0  0
    1.3980   -2.8960   -0.0010 H   0  0  0  0  0  0  0  0  0  0  0  0
    3.6610   -1.8470    0.0040 H   0  0  0  0  0  0  0  0  0  0  0  0
    5.0350    0.1660    0.0020 H   0  0  0  0  0  0  0  0  0  0  0  0
    4.0000    2.3960   -0.0010 H   0  0  0  0  0  0  0  0  0  0  0  0
   -4.6020    2.0900   -0.0010 H   0  0  0  0  0  0  0  0  0  0  0  0
   -1.0420   -2.5800   -0.0040 H   0  0  0  0  0  0  0  0  0  0  0  0
    1.5800    2.6510   -0.0030 H   0  0  0  0  0  0  0  0  0  0  0  0
  4  5  2  0  0  0  0
  5  6  1  0  0  0  0
  3  4  1  0  0  0  0
  6 13  2  0  0  0  0
  2  3  2  0  0  0  0
  3  7  1  0  0  0  0
  2 12  1  0  0  0  0
  7 13  1  0  0  0  0
  7 14  2  0  0  0  0
 11 12  2  0  0  0  0
 11 14  1  0  0  0  0
  9 11  1  0  0  0  0
  1  9  1  0  0  0  0
  9 10  2  0  0  0  0
  1  8  1  0  0  0  0
  1 15  1  0  0  0  0
  2 16  1  0  0  0  0
  4 17  1  0  0  0  0
  5 18  1  0  0  0  0
  6 19  1  0  0  0  0
  8 20  1  0  0  0  0
 12 21  1  0  0  0  0
 13 22  1  0  0  0  0
M  END
> <OPENEYE_ISO_SMILES>
c1ccc2c(c1)ccc(n2)C(=O)NO

> <OPENEYE_INCHI>
InChI=1S/C10H8N2O2/c13-10(12-14)9-6-5-7-3-1-2-4-8(7)11-9/h1-6,14H,(H,12,13)

> <OPENEYE_INCHIKEY>
RLBGLCXAYWCPDM-UHFFFAOYSA-N

> <FORMULA>
C10H8N2O2

$$$$
