HR5
  -OEChem-02242320023D

 32 33  0     0  0  0  0  0  0999 V2000
    3.5890   -0.5920   -0.0170 N   0  0  0  0  0  0  0  0  0  0  0  0
    5.0450   -0.4760   -0.1270 C   0  0  0  0  0  0  0  0  0  0  0  0
    0.1790    0.6390    0.0710 C   0  0  0  0  0  0  0  0  0  0  0  0
   -2.2520    0.7260    0.2200 C   0  0  0  0  0  0  0  0  0  0  0  0
   -3.4170   -0.2480    0.4080 C   0  0  0  0  0  0  0  0  0  0  0  0
   -4.7870    0.4420    0.5040 C   0  0  0  0  0  0  0  0  0  0  0  0
   -3.9110   -0.8790   -0.9050 C   0  0  0  0  0  0  0  0  0  0  0  0
    0.1840    1.8470   -0.0680 O   0  0  0  0  0  0  0  0  0  0  0  0
   -0.9890   -0.0170    0.2230 N   0  0  0  0  0  0  0  0  0  0  0  0
   -5.3390   -0.7080   -0.3550 C   0  0  0  0  0  0  0  0  0  0  0  0
    1.4500   -0.1080    0.0750 C   0  0  0  0  0  0  0  0  0  0  0  0
    1.6010   -1.5050    0.2250 C   0  0  0  0  0  0  0  0  0  0  0  0
    2.8750   -1.7800    0.1740 N   0  0  0  0  0  0  0  0  0  0  0  0
    2.7140    0.4250   -0.0770 C   0  0  0  0  0  0  0  0  0  0  0  0
    3.0510    1.8810   -0.2740 C   0  0  0  0  0  0  0  0  0  0  0  0
    5.3390   -0.5700   -1.1720 H   0  0  0  0  0  0  0  0  0  0  0  0
    5.3620    0.4950    0.2540 H   0  0  0  0  0  0  0  0  0  0  0  0
    5.5170   -1.2660    0.4560 H   0  0  0  0  0  0  0  0  0  0  0  0
   -2.3640    1.2470   -0.7310 H   0  0  0  0  0  0  0  0  0  0  0  0
   -2.2490    1.4510    1.0340 H   0  0  0  0  0  0  0  0  0  0  0  0
   -3.2370   -0.9750    1.2010 H   0  0  0  0  0  0  0  0  0  0  0  0
   -5.1940    0.4660    1.5150 H   0  0  0  0  0  0  0  0  0  0  0  0
   -4.8230    1.4130    0.0100 H   0  0  0  0  0  0  0  0  0  0  0  0
   -3.7060   -0.2700   -1.7860 H   0  0  0  0  0  0  0  0  0  0  0  0
   -3.6100   -1.9190   -1.0300 H   0  0  0  0  0  0  0  0  0  0  0  0
   -0.9930   -0.9800    0.3340 H   0  0  0  0  0  0  0  0  0  0  0  0
   -5.6860   -1.5600    0.2290 H   0  0  0  0  0  0  0  0  0  0  0  0
   -6.0600   -0.3870   -1.1060 H   0  0  0  0  0  0  0  0  0  0  0  0
    0.8020   -2.2190    0.3590 H   0  0  0  0  0  0  0  0  0  0  0  0
    3.0600    2.1110   -1.3390 H   0  0  0  0  0  0  0  0  0  0  0  0
    2.3020    2.4970    0.2240 H   0  0  0  0  0  0  0  0  0  0  0  0
    4.0330    2.0870    0.1520 H   0  0  0  0  0  0  0  0  0  0  0  0
  7 10  1  0  0  0  0
  6 10  1  0  0  0  0
  5  7  1  0  0  0  0
  5  6  1  0  0  0  0
  4  5  1  0  0  0  0
 14 15  1  0  0  0  0
  4  9  1  0  0  0  0
  3  9  1  0  0  0  0
  1 14  1  0  0  0  0
 11 14  2  0  0  0  0
  1  2  1  0  0  0  0
  3 11  1  0  0  0  0
  3  8  2  0  0  0  0
  1 13  1  0  0  0  0
 11 12  1  0  0  0  0
 12 13  2  0  0  0  0
  2 16  1  0  0  0  0
  2 17  1  0  0  0  0
  2 18  1  0  0  0  0
  4 19  1  0  0  0  0
  4 20  1  0  0  0  0
  5 21  1  0  0  0  0
  6 22  1  0  0  0  0
  6 23  1  0  0  0  0
  7 24  1  0  0  0  0
  7 25  1  0  0  0  0
  9 26  1  0  0  0  0
 10 27  1  0  0  0  0
 10 28  1  0  0  0  0
 12 29  1  0  0  0  0
 15 30  1  0  0  0  0
 15 31  1  0  0  0  0
 15 32  1  0  0  0  0
M  END
> <OPENEYE_ISO_SMILES>
Cc1c(cnn1C)C(=O)NCC2CCC2

> <OPENEYE_INCHI>
InChI=1S/C11H17N3O/c1-8-10(7-13-14(8)2)11(15)12-6-9-4-3-5-9/h7,9H,3-6H2,1-2H3,(H,12,15)

> <OPENEYE_INCHIKEY>
WFWUJGIABNGBBR-UHFFFAOYSA-N

> <FORMULA>
C11H17N3O

$$$$
