T0J
  -OEChem-02242320043D

 35 36  0     0  0  0  0  0  0999 V2000
    0.7310   -0.4230    0.6420 C   0  0  0  0  0  0  0  0  0  0  0  0
    1.5210    0.6210    0.3220 N   0  0  0  0  0  0  0  0  0  0  0  0
    2.8530    0.4030   -0.0490 C   0  0  0  0  0  0  0  0  0  0  0  0
    4.5170   -0.9610   -1.1080 C   0  0  0  0  0  0  0  0  0  0  0  0
    5.1400    1.1220   -0.0980 C   0  0  0  0  0  0  0  0  0  0  0  0
   -4.5190    0.1790   -0.6080 C   0  0  0  0  0  0  0  0  0  0  0  0
   -3.3300    0.0960    0.3150 C   0  0  0  0  0  0  0  0  0  0  0  0
   -2.3290    1.1970   -0.0430 C   0  0  0  0  0  0  0  0  0  0  0  0
   -1.1390    1.1320    0.9190 C   0  0  0  0  0  0  0  0  0  0  0  0
   -1.4750   -1.3650    1.1290 C   0  0  0  0  0  0  0  0  0  0  0  0
   -2.6620   -1.2720    0.1650 C   0  0  0  0  0  0  0  0  0  0  0  0
    3.2020   -0.7490   -0.7430 C   0  0  0  0  0  0  0  0  0  0  0  0
    5.4850   -0.0280   -0.7840 C   0  0  0  0  0  0  0  0  0  0  0  0
    3.8270    1.3400    0.2700 C   0  0  0  0  0  0  0  0  0  0  0  0
   -5.2660    1.3000   -0.6460 N   0  0  0  0  0  0  0  0  0  0  0  0
   -0.5790   -0.2260    0.8880 N   0  0  0  0  0  0  0  0  0  0  0  0
   -4.8030   -0.7640   -1.3160 O   0  0  0  0  0  0  0  0  0  0  0  0
    1.2000   -1.5430    0.7030 O   0  0  0  0  0  0  0  0  0  0  0  0
    1.1670    1.5230    0.3500 H   0  0  0  0  0  0  0  0  0  0  0  0
    4.7890   -1.8560   -1.6470 H   0  0  0  0  0  0  0  0  0  0  0  0
    5.8980    1.8480    0.1530 H   0  0  0  0  0  0  0  0  0  0  0  0
   -3.6610    0.2280    1.3460 H   0  0  0  0  0  0  0  0  0  0  0  0
   -1.9790    1.0520   -1.0650 H   0  0  0  0  0  0  0  0  0  0  0  0
   -2.8130    2.1700    0.0420 H   0  0  0  0  0  0  0  0  0  0  0  0
   -0.3780    1.8480    0.6090 H   0  0  0  0  0  0  0  0  0  0  0  0
   -1.4720    1.3690    1.9300 H   0  0  0  0  0  0  0  0  0  0  0  0
   -1.8360   -1.3350    2.1570 H   0  0  0  0  0  0  0  0  0  0  0  0
   -0.9360   -2.2970    0.9590 H   0  0  0  0  0  0  0  0  0  0  0  0
   -3.3820   -2.0560    0.3970 H   0  0  0  0  0  0  0  0  0  0  0  0
   -2.3090   -1.3940   -0.8590 H   0  0  0  0  0  0  0  0  0  0  0  0
    2.4460   -1.4770   -0.9960 H   0  0  0  0  0  0  0  0  0  0  0  0
    6.5140   -0.1980   -1.0670 H   0  0  0  0  0  0  0  0  0  0  0  0
    3.5580    2.2380    0.8050 H   0  0  0  0  0  0  0  0  0  0  0  0
   -5.0380    2.0540   -0.0790 H   0  0  0  0  0  0  0  0  0  0  0  0
   -6.0300    1.3530   -1.2400 H   0  0  0  0  0  0  0  0  0  0  0  0
  6 15  1  0  0  0  0
  6 17  2  0  0  0  0
  6  7  1  0  0  0  0
  7  8  1  0  0  0  0
  8  9  1  0  0  0  0
  9 16  1  0  0  0  0
 10 11  1  0  0  0  0
 10 16  1  0  0  0  0
  1 16  1  0  0  0  0
  1 18  2  0  0  0  0
  1  2  1  0  0  0  0
  2  3  1  0  0  0  0
  3 12  2  0  0  0  0
  4 12  1  0  0  0  0
  4 13  2  0  0  0  0
  5 13  1  0  0  0  0
  5 14  2  0  0  0  0
  7 11  1  0  0  0  0
  3 14  1  0  0  0  0
  2 19  1  0  0  0  0
  4 20  1  0  0  0  0
  5 21  1  0  0  0  0
  7 22  1  0  0  0  0
  8 23  1  0  0  0  0
  8 24  1  0  0  0  0
  9 25  1  0  0  0  0
  9 26  1  0  0  0  0
 10 27  1  0  0  0  0
 10 28  1  0  0  0  0
 11 29  1  0  0  0  0
 11 30  1  0  0  0  0
 12 31  1  0  0  0  0
 13 32  1  0  0  0  0
 14 33  1  0  0  0  0
 15 34  1  0  0  0  0
 15 35  1  0  0  0  0
M  END
> <OPENEYE_ISO_SMILES>
c1ccc(cc1)NC(=O)N2CCC(CC2)C(=O)N

> <OPENEYE_INCHI>
InChI=1S/C13H17N3O2/c14-12(17)10-6-8-16(9-7-10)13(18)15-11-4-2-1-3-5-11/h1-5,10H,6-9H2,(H2,14,17)(H,15,18)

> <OPENEYE_INCHIKEY>
OSBGPHZLIBZPGJ-UHFFFAOYSA-N

> <FORMULA>
C13H17N3O2

$$$$
