T81
  -OEChem-02242320043D

 31 32  0     0  0  0  0  0  0999 V2000
   -1.7200   -0.9190    0.1060 N   0  0  0  0  0  0  0  0  0  0  0  0
   -0.6920   -1.6770    0.8310 C   0  0  0  0  0  0  0  0  0  0  0  0
    0.6220   -0.9430    0.7520 C   0  0  0  0  0  0  0  0  0  0  0  0
    1.0460   -0.0290    1.6260 C   0  0  0  0  0  0  0  0  0  0  0  0
    2.2890    0.5120    1.3480 C   0  0  0  0  0  0  0  0  0  0  0  0
    2.8750    0.0370    0.2470 C   0  0  0  0  0  0  0  0  0  0  0  0
   -2.9280    1.2000   -0.1140 C   0  0  0  0  0  0  0  0  0  0  0  0
   -4.1210    0.3960   -0.4190 N   0  0  0  0  0  0  0  0  0  0  0  0
   -6.5670    0.0460   -0.5320 C   0  0  0  0  0  0  0  0  0  0  0  0
   -5.4990    2.0080    0.2290 O   0  0  0  0  0  0  0  0  0  0  0  0
   -5.3580    0.8880   -0.2130 C   0  0  0  0  0  0  0  0  0  0  0  0
   -3.9270   -0.9610   -0.9550 C   0  0  0  0  0  0  0  0  0  0  0  0
   -2.9500   -1.7090   -0.0430 C   0  0  0  0  0  0  0  0  0  0  0  0
   -1.9900    0.3660    0.7650 C   0  0  0  0  0  0  0  0  0  0  0  0
    1.8340   -1.1670   -0.5020 S   0  0  0  0  0  0  0  0  0  0  0  0
    4.5690    0.5700   -0.4030 Br  0  0  0  0  0  0  0  0  0  0  0  0
   -0.9870   -1.7830    1.8750 H   0  0  0  0  0  0  0  0  0  0  0  0
   -0.5840   -2.6640    0.3820 H   0  0  0  0  0  0  0  0  0  0  0  0
    0.4630    0.2670    2.4860 H   0  0  0  0  0  0  0  0  0  0  0  0
    2.7500    1.2630    1.9740 H   0  0  0  0  0  0  0  0  0  0  0  0
   -2.4200    1.4670   -1.0410 H   0  0  0  0  0  0  0  0  0  0  0  0
   -3.2230    2.1050    0.4160 H   0  0  0  0  0  0  0  0  0  0  0  0
   -6.5430   -0.8650    0.0660 H   0  0  0  0  0  0  0  0  0  0  0  0
   -7.4720    0.6080   -0.3020 H   0  0  0  0  0  0  0  0  0  0  0  0
   -6.5590   -0.2140   -1.5910 H   0  0  0  0  0  0  0  0  0  0  0  0
   -4.8820   -1.4850   -0.9770 H   0  0  0  0  0  0  0  0  0  0  0  0
   -3.5190   -0.9010   -1.9640 H   0  0  0  0  0  0  0  0  0  0  0  0
   -2.7090   -2.6770   -0.4840 H   0  0  0  0  0  0  0  0  0  0  0  0
   -3.4070   -1.8590    0.9360 H   0  0  0  0  0  0  0  0  0  0  0  0
   -2.4600    0.1880    1.7320 H   0  0  0  0  0  0  0  0  0  0  0  0
   -1.0530    0.9040    0.9090 H   0  0  0  0  0  0  0  0  0  0  0  0
  9 11  1  0  0  0  0
 10 11  2  0  0  0  0
  8 11  1  0  0  0  0
  8 12  1  0  0  0  0
 12 13  1  0  0  0  0
  1 13  1  0  0  0  0
  1  2  1  0  0  0  0
  2  3  1  0  0  0  0
  3  4  2  0  0  0  0
  4  5  1  0  0  0  0
  5  6  2  0  0  0  0
  6 16  1  0  0  0  0
  6 15  1  0  0  0  0
  3 15  1  0  0  0  0
  1 14  1  0  0  0  0
  7 14  1  0  0  0  0
  7  8  1  0  0  0  0
  2 17  1  0  0  0  0
  2 18  1  0  0  0  0
  4 19  1  0  0  0  0
  5 20  1  0  0  0  0
  7 21  1  0  0  0  0
  7 22  1  0  0  0  0
  9 23  1  0  0  0  0
  9 24  1  0  0  0  0
  9 25  1  0  0  0  0
 12 26  1  0  0  0  0
 12 27  1  0  0  0  0
 13 28  1  0  0  0  0
 13 29  1  0  0  0  0
 14 30  1  0  0  0  0
 14 31  1  0  0  0  0
M  END
> <OPENEYE_ISO_SMILES>
CC(=O)N1CCN(CC1)Cc2ccc(s2)Br

> <OPENEYE_INCHI>
InChI=1S/C11H15BrN2OS/c1-9(15)14-6-4-13(5-7-14)8-10-2-3-11(12)16-10/h2-3H,4-8H2,1H3

> <OPENEYE_INCHIKEY>
DJIREERJIYHRHW-UHFFFAOYSA-N

> <FORMULA>
C11H15BrN2OS

$$$$
