W2S
  -OEChem-02242320043D

 29 30  0     1  0  0  0  0  0999 V2000
    1.9320    0.7360   -1.7030 C   0  0  0  0  0  0  0  0  0  0  0  0
    0.6980    0.2690   -1.2910 C   0  0  0  0  0  0  0  0  0  0  0  0
    0.6020   -0.5310   -0.1680 C   0  0  0  0  0  0  0  0  0  0  0  0
   -0.7430   -1.0410    0.2820 C   0  0  1  0  0  0  0  0  0  0  0  0
   -1.6260    0.1250    0.7790 C   0  0  2  0  0  0  0  0  0  0  0  0
   -2.8400    0.1100   -0.1760 C   0  0  0  0  0  0  0  0  0  0  0  0
   -1.0640    2.1510   -0.2850 O   0  0  0  0  0  0  0  0  0  0  0  0
   -0.8840    1.4330    0.6690 C   0  0  0  0  0  0  0  0  0  0  0  0
   -0.0230    1.7980    1.6320 O   0  0  0  0  0  0  0  0  0  0  0  0
   -2.9010   -1.2440   -0.6740 O   0  0  0  0  0  0  0  0  0  0  0  0
   -1.5270   -1.6270   -0.9140 C   0  0  0  0  0  0  0  0  0  0  0  0
    1.7400   -0.8640    0.5430 C   0  0  0  0  0  0  0  0  0  0  0  0
    1.6350   -1.7370    1.7670 C   0  0  0  0  0  0  0  0  0  0  0  0
    3.0700    0.4040   -0.9920 C   0  0  0  0  0  0  0  0  0  0  0  0
    2.9740   -0.3960    0.1310 C   0  0  0  0  0  0  0  0  0  0  0  0
    2.0070    1.3580   -2.5830 H   0  0  0  0  0  0  0  0  0  0  0  0
   -0.1910    0.5290   -1.8460 H   0  0  0  0  0  0  0  0  0  0  0  0
   -0.6240   -1.7910    1.0640 H   0  0  0  0  0  0  0  0  0  0  0  0
   -1.9440   -0.0470    1.8070 H   0  0  0  0  0  0  0  0  0  0  0  0
   -3.7530    0.3560    0.3670 H   0  0  0  0  0  0  0  0  0  0  0  0
   -2.6870    0.8120   -0.9960 H   0  0  0  0  0  0  0  0  0  0  0  0
    0.4290    2.6460    1.5180 H   0  0  0  0  0  0  0  0  0  0  0  0
   -1.1700   -1.1940   -1.8480 H   0  0  0  0  0  0  0  0  0  0  0  0
   -1.4340   -2.7120   -0.9380 H   0  0  0  0  0  0  0  0  0  0  0  0
    1.7320   -2.7830    1.4770 H   0  0  0  0  0  0  0  0  0  0  0  0
    2.4310   -1.4790    2.4660 H   0  0  0  0  0  0  0  0  0  0  0  0
    0.6680   -1.5800    2.2440 H   0  0  0  0  0  0  0  0  0  0  0  0
    4.0340    0.7660   -1.3160 H   0  0  0  0  0  0  0  0  0  0  0  0
    3.8630   -0.6560    0.6870 H   0  0  0  0  0  0  0  0  0  0  0  0
  6 10  1  0  0  0  0
 10 11  1  0  0  0  0
  5  6  1  0  0  0  0
  4 11  1  0  0  0  0
  1  2  2  0  0  0  0
  2  3  1  0  0  0  0
  1 14  1  0  0  0  0
  7  8  2  0  0  0  0
  4  5  1  0  0  0  0
  5  8  1  0  0  0  0
  3  4  1  0  0  0  0
  3 12  2  0  0  0  0
  8  9  1  0  0  0  0
 14 15  2  0  0  0  0
 12 15  1  0  0  0  0
 12 13  1  0  0  0  0
  1 16  1  0  0  0  0
  2 17  1  0  0  0  0
  4 18  1  0  0  0  0
  5 19  1  0  0  0  0
  6 20  1  0  0  0  0
  6 21  1  0  0  0  0
  9 22  1  0  0  0  0
 11 23  1  0  0  0  0
 11 24  1  0  0  0  0
 13 25  1  0  0  0  0
 13 26  1  0  0  0  0
 13 27  1  0  0  0  0
 14 28  1  0  0  0  0
 15 29  1  0  0  0  0
M  END
> <OPENEYE_ISO_SMILES>
Cc1ccccc1[C@@H]2COC[C@@H]2C(=O)O

> <OPENEYE_INCHI>
InChI=1S/C12H14O3/c1-8-4-2-3-5-9(8)10-6-15-7-11(10)12(13)14/h2-5,10-11H,6-7H2,1H3,(H,13,14)/t10-,11-/m0/s1

> <OPENEYE_INCHIKEY>
HRNZEMTYRBZUGX-QWRGUYRKSA-N

> <FORMULA>
C12H14O3

$$$$
