7YQ
  -OEChem-02242320013D

 93 95  0     1  0  0  0  0  0999 V2000
    6.9600   -0.5610    0.3850 C   0  0  0  0  0  0  0  0  0  0  0  0
   -0.2250    3.6200   -0.0780 C   0  0  0  0  0  0  0  0  0  0  0  0
    1.0730    0.5660    1.3770 C   0  0  2  0  0  0  0  0  0  0  0  0
   -0.1330   -0.0630    0.7290 C   0  0  0  0  0  0  0  0  0  0  0  0
   -1.5260   -2.7500    0.7120 C   0  0  0  0  0  0  0  0  0  0  0  0
   -2.5330   -0.4650    0.6130 C   0  0  2  0  0  0  0  0  0  0  0  0
   -3.7590    0.3500    0.9340 C   0  0  0  0  0  0  0  0  0  0  0  0
   -1.6430   -4.1370    1.3470 C   0  0  0  0  0  0  0  0  0  0  0  0
   -6.1540    0.7680    0.7690 C   0  0  1  0  0  0  0  0  0  0  0  0
   -0.4550   -4.9980    0.9140 C   0  0  0  0  0  0  0  0  0  0  0  0
   -7.2100    0.5510   -0.3180 C   0  0  0  0  0  0  0  0  0  0  0  0
    7.6410    0.3930   -0.3480 C   0  0  0  0  0  0  0  0  0  0  0  0
   -6.6930    1.1020   -1.6480 C   0  0  2  0  0  0  0  0  0  0  0  0
   -7.7550    0.9230   -2.7570 C   0  0  0  0  0  0  0  0  0  0  0  0
   -7.3300   -0.4220   -3.3860 C   0  0  0  0  0  0  0  0  0  0  0  0
   -0.4520   -5.1330   -0.6100 C   0  0  0  0  0  0  0  0  0  0  0  0
   -5.5100    0.2940   -2.1330 C   0  0  0  0  0  0  0  0  0  0  0  0
   -0.3350   -3.7460   -1.2450 C   0  0  0  0  0  0  0  0  0  0  0  0
   -1.5230   -2.8850   -0.8120 C   0  0  0  0  0  0  0  0  0  0  0  0
    0.2360    4.7690    0.8200 C   0  0  0  0  0  0  0  0  0  0  0  0
   -1.6140    3.1540    0.3630 C   0  0  0  0  0  0  0  0  0  0  0  0
   -0.2860    4.1000   -1.5300 C   0  0  0  0  0  0  0  0  0  0  0  0
    8.6700    0.0140   -1.1910 C   0  0  0  0  0  0  0  0  0  0  0  0
    0.9220    2.0890    1.3650 C   0  0  1  0  0  0  0  0  0  0  0  0
    2.2000    2.7320    1.9090 C   0  0  0  0  0  0  0  0  0  0  0  0
   -2.7140   -1.8880    1.1450 C   0  0  0  0  0  0  0  0  0  0  0  0
    9.0170   -1.3210   -1.3000 C   0  0  0  0  0  0  0  0  0  0  0  0
    8.3360   -2.2740   -0.5670 C   0  0  0  0  0  0  0  0  0  0  0  0
    7.3120   -1.8940    0.2790 C   0  0  0  0  0  0  0  0  0  0  0  0
    5.8390   -0.1480    1.3030 C   0  0  0  0  0  0  0  0  0  0  0  0
   -6.7180    0.3310    2.1220 C   0  0  0  0  0  0  0  0  0  0  0  0
    3.4760    0.1830    1.2550 C   0  0  0  0  0  0  0  0  0  0  0  0
    2.2790    0.1890    0.6360 N   0  0  0  0  0  0  0  0  0  0  0  0
   -1.3610    0.1470    1.2430 N   0  0  0  0  0  0  0  0  0  0  0  0
   -4.9630   -0.0250    0.4570 N   0  0  0  0  0  0  0  0  0  0  0  0
   -5.8940   -0.5470   -3.1090 N   0  0  0  0  0  0  0  0  0  0  0  0
   -4.3800    0.3900   -1.7030 O   0  0  0  0  0  0  0  0  0  0  0  0
    3.5560    0.4910    2.4270 O   0  0  0  0  0  0  0  0  0  0  0  0
    0.0020   -0.7590   -0.2550 O   0  0  0  0  0  0  0  0  0  0  0  0
   -3.6630    1.3450    1.6210 O   0  0  0  0  0  0  0  0  0  0  0  0
    0.6980    2.5340    0.0260 O   0  0  0  0  0  0  0  0  0  0  0  0
    4.5840   -0.1640    0.5730 O   0  0  0  0  0  0  0  0  0  0  0  0
   -7.1750   -1.0200    2.0340 O   0  0  0  0  0  0  0  0  0  0  0  0
    9.5240    1.2120   -2.1120 Cl  0  0  0  0  0  0  0  0  0  0  0  0
    1.1560    0.2180    2.4070 H   0  0  0  0  0  0  0  0  0  0  0  0
   -0.5980   -2.2790    1.0370 H   0  0  0  0  0  0  0  0  0  0  0  0
   -2.3900   -0.4970   -0.4670 H   0  0  0  0  0  0  0  0  0  0  0  0
   -1.6450   -4.0400    2.4320 H   0  0  0  0  0  0  0  0  0  0  0  0
   -2.5710   -4.6080    1.0220 H   0  0  0  0  0  0  0  0  0  0  0  0
   -5.8870    1.8240    0.8100 H   0  0  0  0  0  0  0  0  0  0  0  0
    0.4730   -4.5270    1.2380 H   0  0  0  0  0  0  0  0  0  0  0  0
   -0.5390   -5.9860    1.3660 H   0  0  0  0  0  0  0  0  0  0  0  0
   -7.4120   -0.5150   -0.4200 H   0  0  0  0  0  0  0  0  0  0  0  0
   -8.1280    1.0700   -0.0410 H   0  0  0  0  0  0  0  0  0  0  0  0
    7.3690    1.4350   -0.2620 H   0  0  0  0  0  0  0  0  0  0  0  0
   -6.4210    2.1530   -1.5440 H   0  0  0  0  0  0  0  0  0  0  0  0
   -8.7570    0.8550   -2.3310 H   0  0  0  0  0  0  0  0  0  0  0  0
   -7.6980    1.7310   -3.4870 H   0  0  0  0  0  0  0  0  0  0  0  0
   -7.8760   -1.2440   -2.9250 H   0  0  0  0  0  0  0  0  0  0  0  0
   -7.5060   -0.4080   -4.4620 H   0  0  0  0  0  0  0  0  0  0  0  0
    0.3940   -5.7470   -0.9190 H   0  0  0  0  0  0  0  0  0  0  0  0
   -1.3800   -5.6040   -0.9350 H   0  0  0  0  0  0  0  0  0  0  0  0
    0.5930   -3.2750   -0.9200 H   0  0  0  0  0  0  0  0  0  0  0  0
   -0.3330   -3.8420   -2.3310 H   0  0  0  0  0  0  0  0  0  0  0  0
   -2.4510   -3.3560   -1.1370 H   0  0  0  0  0  0  0  0  0  0  0  0
   -1.4390   -1.8960   -1.2640 H   0  0  0  0  0  0  0  0  0  0  0  0
   -0.4020    5.6380    0.6560 H   0  0  0  0  0  0  0  0  0  0  0  0
    0.1710    4.4630    1.8640 H   0  0  0  0  0  0  0  0  0  0  0  0
    1.2680    5.0270    0.5800 H   0  0  0  0  0  0  0  0  0  0  0  0
   -2.3180    3.9820    0.2840 H   0  0  0  0  0  0  0  0  0  0  0  0
   -1.9420    2.3350   -0.2760 H   0  0  0  0  0  0  0  0  0  0  0  0
   -1.5700    2.8120    1.3980 H   0  0  0  0  0  0  0  0  0  0  0  0
    0.7030    4.4330   -1.8440 H   0  0  0  0  0  0  0  0  0  0  0  0
   -0.6150    3.2820   -2.1700 H   0  0  0  0  0  0  0  0  0  0  0  0
   -0.9900    4.9290   -1.6090 H   0  0  0  0  0  0  0  0  0  0  0  0
    0.0770    2.3750    1.9900 H   0  0  0  0  0  0  0  0  0  0  0  0
    2.0540    3.8090    1.9990 H   0  0  0  0  0  0  0  0  0  0  0  0
    2.4280    2.3130    2.8890 H   0  0  0  0  0  0  0  0  0  0  0  0
    3.0260    2.5320    1.2270 H   0  0  0  0  0  0  0  0  0  0  0  0
   -3.6350   -2.3120    0.7440 H   0  0  0  0  0  0  0  0  0  0  0  0
   -2.7680   -1.8650    2.2340 H   0  0  0  0  0  0  0  0  0  0  0  0
    9.8170   -1.6180   -1.9620 H   0  0  0  0  0  0  0  0  0  0  0  0
    8.6070   -3.3160   -0.6530 H   0  0  0  0  0  0  0  0  0  0  0  0
    6.7800   -2.6390    0.8520 H   0  0  0  0  0  0  0  0  0  0  0  0
    5.7810   -0.8430    2.1410 H   0  0  0  0  0  0  0  0  0  0  0  0
    6.0290    0.8580    1.6780 H   0  0  0  0  0  0  0  0  0  0  0  0
   -5.9380    0.4010    2.8800 H   0  0  0  0  0  0  0  0  0  0  0  0
   -7.5500    0.9790    2.3950 H   0  0  0  0  0  0  0  0  0  0  0  0
    2.2160   -0.0570   -0.3000 H   0  0  0  0  0  0  0  0  0  0  0  0
   -1.4690    0.7030    2.0310 H   0  0  0  0  0  0  0  0  0  0  0  0
   -5.0390   -0.8210   -0.0930 H   0  0  0  0  0  0  0  0  0  0  0  0
   -5.2980   -1.1580   -3.5710 H   0  0  0  0  0  0  0  0  0  0  0  0
   -7.5470   -1.3650    2.8580 H   0  0  0  0  0  0  0  0  0  0  0  0
  2 21  1  0  0  0  0
 27 28  2  0  0  0  0
 23 27  1  0  0  0  0
 28 29  1  0  0  0  0
 23 44  1  0  0  0  0
 12 23  2  0  0  0  0
  2 41  1  0  0  0  0
 24 41  1  0  0  0  0
 24 25  1  0  0  0  0
  2 20  1  0  0  0  0
  2 22  1  0  0  0  0
 18 19  1  0  0  0  0
 16 18  1  0  0  0  0
  5 19  1  0  0  0  0
  1 29  2  0  0  0  0
  3 24  1  0  0  0  0
  7 40  2  0  0  0  0
  3  4  1  0  0  0  0
  3 33  1  0  0  0  0
  5 26  1  0  0  0  0
  6 26  1  0  0  0  0
  1 12  1  0  0  0  0
 32 38  2  0  0  0  0
  4 34  1  0  0  0  0
  6 34  1  0  0  0  0
  1 30  1  0  0  0  0
  5  8  1  0  0  0  0
 10 16  1  0  0  0  0
  4 39  2  0  0  0  0
  6  7  1  0  0  0  0
  7 35  1  0  0  0  0
 32 33  1  0  0  0  0
 32 42  1  0  0  0  0
 14 15  1  0  0  0  0
 13 14  1  0  0  0  0
  8 10  1  0  0  0  0
 15 36  1  0  0  0  0
 30 42  1  0  0  0  0
  9 35  1  0  0  0  0
  9 31  1  0  0  0  0
  9 11  1  0  0  0  0
 31 43  1  0  0  0  0
 11 13  1  0  0  0  0
 13 17  1  0  0  0  0
 17 36  1  0  0  0  0
 17 37  2  0  0  0  0
  3 45  1  0  0  0  0
  5 46  1  0  0  0  0
  6 47  1  0  0  0  0
  8 48  1  0  0  0  0
  8 49  1  0  0  0  0
  9 50  1  0  0  0  0
 10 51  1  0  0  0  0
 10 52  1  0  0  0  0
 11 53  1  0  0  0  0
 11 54  1  0  0  0  0
 12 55  1  0  0  0  0
 13 56  1  0  0  0  0
 14 57  1  0  0  0  0
 14 58  1  0  0  0  0
 15 59  1  0  0  0  0
 15 60  1  0  0  0  0
 16 61  1  0  0  0  0
 16 62  1  0  0  0  0
 18 63  1  0  0  0  0
 18 64  1  0  0  0  0
 19 65  1  0  0  0  0
 19 66  1  0  0  0  0
 20 67  1  0  0  0  0
 20 68  1  0  0  0  0
 20 69  1  0  0  0  0
 21 70  1  0  0  0  0
 21 71  1  0  0  0  0
 21 72  1  0  0  0  0
 22 73  1  0  0  0  0
 22 74  1  0  0  0  0
 22 75  1  0  0  0  0
 24 76  1  0  0  0  0
 25 77  1  0  0  0  0
 25 78  1  0  0  0  0
 25 79  1  0  0  0  0
 26 80  1  0  0  0  0
 26 81  1  0  0  0  0
 27 82  1  0  0  0  0
 28 83  1  0  0  0  0
 29 84  1  0  0  0  0
 30 85  1  0  0  0  0
 30 86  1  0  0  0  0
 31 87  1  0  0  0  0
 31 88  1  0  0  0  0
 33 89  1  0  0  0  0
 34 90  1  0  0  0  0
 35 91  1  0  0  0  0
 36 92  1  0  0  0  0
 43 93  1  0  0  0  0
M  END
> <OPENEYE_ISO_SMILES>
C[C@H]([C@@H](C(=O)N[C@@H](CC1CCCCC1)C(=O)N[C@@H](C[C@@H]2CCNC2=O)CO)NC(=O)OCc3cccc(c3)Cl)OC(C)(C)C

> <OPENEYE_INCHI>
InChI=1S/C32H49ClN4O7/c1-20(44-32(2,3)4)27(37-31(42)43-19-22-11-8-12-24(33)15-22)30(41)36-26(16-21-9-6-5-7-10-21)29(40)35-25(18-38)17-23-13-14-34-28(23)39/h8,11-12,15,20-21,23,25-27,38H,5-7,9-10,13-14,16-19H2,1-4H3,(H,34,39)(H,35,40)(H,36,41)(H,37,42)/t20-,23+,25+,26+,27+/m1/s1

> <OPENEYE_INCHIKEY>
NMIBOPATDHUKKK-BFDHNVDPSA-N

> <FORMULA>
C32H49ClN4O7

$$$$
