@<TRIPOS>MOLECULE
/home/pku/3cl/gett_pdb/7VU6/7VU6_mol2/ligand/7VU6_7YY.pdb
 37 41 0 0 0
SMALL
GASTEIGER

@<TRIPOS>ATOM
      1  C11        9.0670    9.1480   -1.8000 C.ar  501  7YY501      0.2294
      2  C13        8.7120    8.8810   -4.1470 C.ar  501  7YY501      0.0842
      3  C14        9.3720    9.5030   -5.1680 C.ar  501  7YY501      0.0206
      4  C15        9.6630    8.8950   -6.3890 C.ar  501  7YY501      0.0394
      5  C01       14.5860   11.1870    2.0350 C.3   501  7YY501      0.1459
      6  N02       13.6850    9.9850    2.2970 N.3   501  7YY501     -0.0370
      7  C03       13.6070    9.2640    3.4480 C.3   501  7YY501      0.3815
      8  N04       12.7390    8.2860    3.3250 N.2   501  7YY501     -0.0395
      9  C05       12.2880    8.4480    2.1040 C.2   501  7YY501      0.3786
     10  C06       11.3060    7.6900    1.5790 C.3   501  7YY501      0.2373
     11  N07       10.5290    8.2420    0.4550 N.ar  501  7YY501     -0.2204
     12  C08       10.7580    7.7810   -0.8390 C.ar  501  7YY501      0.3564
     13  O09       11.5410    6.9480   -1.0200 O.2   501  7YY501     -0.2442
     14  N10        9.9650    8.2540   -1.8600 N.ar  501  7YY501     -0.1587
     15  N12        8.4360    9.4700   -2.9370 N.pl3 501  7YY501     -0.1780
     16  C16       10.2920    9.2720   -7.5500 C.ar  501  7YY501      0.0967
     17  N17       10.2740    8.2240   -8.3990 N.ar  501  7YY501     -0.2474
     18  C18       10.8930    8.2360   -9.7710 C.3   501  7YY501      0.1538
     19  N19        9.7090    7.1910   -7.8350 N.ar  501  7YY501     -0.1692
     20  C20        9.2960    7.5950   -6.6260 C.ar  501  7YY501      0.1033
     21  C21        8.6380    6.8910   -5.5670 C.ar  501  7YY501      0.0336
     22  C22        8.3770    7.5100   -4.4140 C.ar  501  7YY501      0.0745
     23 CL2         7.5270    6.5830   -3.1210 Cl    501  7YY501     -0.0808
     24  N24        8.8150    9.7920   -0.5840 N.ar  501  7YY501     -0.2484
     25  C25        7.8460   10.7480   -0.4870 C.3   501  7YY501      0.1423
     26  C26        6.5070   10.2180   -0.0670 C.ar  501  7YY501      0.0305
     27  C27        5.5230   11.0910    0.2310 C.ar  501  7YY501      0.1403
     28  F28        5.7090   12.3220    0.1870 F     501  7YY501     -0.2044
     29  C29        4.2570   10.5940    0.6530 C.ar  501  7YY501      0.0613
     30  C30        3.9920    9.2310    0.7310 C.ar  501  7YY501      0.1696
     31  F31        2.9360    8.8100    1.0580 F     501  7YY501     -0.2017
     32  C32        5.0490    8.3150    0.4250 C.ar  501  7YY501      0.1673
     33  F33        4.8940    7.1390    0.4740 F     501  7YY501     -0.2018
     34  C34        6.2490    8.9010   -0.0050 C.ar  501  7YY501      0.0318
     35  C35        9.5770    9.2940    0.6200 C.ar  501  7YY501      0.3377
     36  O36        9.4060    9.7730    1.6700 O.2   501  7YY501     -0.2461
     37  N37       12.8410    9.5020    1.4860 N.pl3 501  7YY501      0.0617
@<TRIPOS>BOND
     1    18    17    1
     2    17    19   ar
     3    17    16   ar
     4    19    20   ar
     5    16     4   ar
     6    20     4   ar
     7    20    21   ar
     8     4     3   ar
     9    21    22   ar
    10     3     2   ar
    11    22     2   ar
    12    22    23    1
    13     2    15    1
    14    15     1    1
    15    14     1   ar
    16    14    12   ar
    17     1    24   ar
    18    13    12    2
    19    12    11   ar
    20    24    25    1
    21    24    35   ar
    22    25    26    1
    23    26    34   ar
    24    26    27   ar
    25    34    32   ar
    26    28    27    1
    27    27    29   ar
    28    32    33    1
    29    32    30   ar
    30    11    35   ar
    31    11    10    1
    32    35    36    2
    33    29    30   ar
    34    30    31    1
    35    37     9    1
    36    37     6    1
    37    10     9    1
    38     5     6    1
    39     9     8    2
    40     6     7    1
    41     8     7    1
