@<TRIPOS>MOLECULE
/home/pku/3cl/gett_pdb/7WYO/7WYO_mol2/ligand/7WYO_G7F.pdb
 33 34 0 0 0
SMALL
GASTEIGER

@<TRIPOS>ATOM
      1  C1       -30.0170   18.4200   -6.9960 C.3   201  G7F201      0.0242
      2  C2       -29.6380   19.6920   -7.7110 C.2   201  G7F201      0.2157
      3  C3       -31.8360   20.6860   -7.1240 C.3   201  G7F201      0.0036
      4  C4       -30.0890   21.9940   -8.2690 C.3   201  G7F201      0.0629
      5  C5       -30.7730   22.2240   -9.5930 C.ar  201  G7F201      0.0961
      6  C6       -32.2680   22.8960  -11.1890 C.ar  201  G7F201      0.0520
      7  C11      -33.4780   23.5470  -11.8150 C.3   201  G7F201     -0.0096
      8  N        -30.4820   20.7200   -7.7030 N.am  201  G7F201     -0.2982
      9  C        -29.6040   18.4620   -5.5460 C.3   201  G7F201     -0.0444
     10  O        -28.5320   19.8170   -8.2450 O.2   201  G7F201     -0.2756
     11  C10      -33.2170   23.6680  -13.3230 C.3   201  G7F201     -0.0473
     12  C7       -31.3100   22.1740  -12.0230 C.ar  201  G7F201      0.0127
     13  C8       -31.3240   21.9590  -13.5060 C.3   201  G7F201     -0.0196
     14  C9       -32.7090   22.3890  -13.9840 C.3   201  G7F201     -0.0482
     15  N1       -31.9140   22.8940   -9.8690 N.ar  201  G7F201     -0.2471
     16  S        -30.0450   21.5470  -11.0230 S.2   201  G7F201     -0.0752
     17  H4       -31.0970   18.2760   -7.0610 H     201  G7F201      0.0358
     18  H4       -29.5350   17.5710   -7.4860 H     201  G7F201      0.0358
     19  H5       -32.2490   21.6610   -7.1330 H     201  G7F201      0.0429
     20  H6       -31.7850   20.3350   -6.1260 H     201  G7F201      0.0429
     21  H7       -32.4480   20.0380   -7.6950 H     201  G7F201      0.0429
     22  H8       -30.3520   22.7970   -7.5780 H     201  G7F201      0.0534
     23  H9       -29.0070   22.0130   -8.4090 H     201  G7F201      0.0534
     24  H16      -34.3700   22.9440  -11.6320 H     201  G7F201      0.0328
     25  H17      -33.6450   24.5340  -11.3780 H     201  G7F201      0.0328
     26  H2       -28.6240   18.8610   -5.4920 H     201  G7F201      0.0270
     27  H18      -30.2730   19.1000   -5.0290 H     201  G7F201      0.0270
     28  H14      -34.1450   23.9680  -13.8130 H     201  G7F201      0.0269
     29  H15      -32.4810   24.4590  -13.4850 H     201  G7F201      0.0269
     30  H11      -30.5460   22.5540  -13.9900 H     201  G7F201      0.0319
     31  H10      -31.1420   20.9090  -13.7460 H     201  G7F201      0.0319
     32  H13      -33.4170   21.5840  -13.7800 H     201  G7F201      0.0269
     33  H12      -32.6770   22.5420  -15.0650 H     201  G7F201      0.0269
@<TRIPOS>BOND
     1    33    14    1
     2    30    13    1
     3    14    32    1
     4    14    13    1
     5    14    11    1
     6    28    11    1
     7    31    13    1
     8    13    12    1
     9    29    11    1
    10    11     7    1
    11    12     6   ar
    12    12    16   ar
    13     7    24    1
    14     7    25    1
    15     7     6    1
    16     6    15   ar
    17    16     5   ar
    18    15     5   ar
    19     5     4    1
    20    23     4    1
    21     4     8    1
    22     4    22    1
    23    10     2    2
    24     2     8   am
    25     2     1    1
    26     8     3    1
    27    21     3    1
    28    18     1    1
    29    19     3    1
    30     3    20    1
    31    17     1    1
    32     1     9    1
    33     9    26    1
    34     9    27    1
