@<TRIPOS>MOLECULE
/home/pku/3cl/gett_pdb/5RV4/5RV4_mol2/ligand/5RV4_4FS.pdb
 19 20 0 0 0
SMALL
GASTEIGER

@<TRIPOS>ATOM
      1  C1       -51.9820  -29.6620    5.9900 C.ar  201  4FS201      0.0489
      2  C5       -47.4840  -28.7790    4.1810 C.ar  201  4FS201     -0.0611
      3  C3       -49.7040  -29.0020    3.3320 C.ar  201  4FS201     -0.0357
      4  C6       -47.9300  -29.0090    5.4540 C.ar  201  4FS201     -0.0525
      5  N        -51.8180  -29.9760    8.4300 N.pl3 201  4FS201     -0.3568
      6  C        -51.2030  -29.6990    7.1470 C.ar  201  4FS201      0.0435
      7  C8       -49.8360  -29.4670    7.0100 C.ar  201  4FS201     -0.0304
      8  C7       -49.3200  -29.2130    5.6970 C.ar  201  4FS201      0.0021
      9  C2       -50.1740  -29.2100    4.6510 C.ar  201  4FS201      0.0711
     10  N1       -51.4700  -29.4580    4.8250 N.ar  201  4FS201     -0.2532
     11  C4       -48.3650  -28.7620    3.1000 C.ar  201  4FS201     -0.0597
     12  H1       -52.8990  -29.7980    6.0610 H     201  4FS201      0.0848
     13  H2       -46.5790  -28.6190    4.0360 H     201  4FS201      0.0618
     14  H3       -50.3570  -28.9240    2.7040 H     201  4FS201      0.0639
     15  H4       -47.3280  -29.0150    6.1630 H     201  4FS201      0.0624
     16  H5       -51.9340  -29.3400    8.9970 H     201  4FS201      0.1424
     17  H6       -52.0670  -30.7760    8.6240 H     201  4FS201      0.1424
     18  H7       -49.2690  -29.5080    7.7460 H     201  4FS201      0.0643
     19  H8       -48.0570  -28.5860    2.2400 H     201  4FS201      0.0618
@<TRIPOS>BOND
     1    19    11    1
     2    14     3    1
     3    11     3   ar
     4    11     2   ar
     5     3     9   ar
     6    13     2    1
     7     2     4   ar
     8     9    10   ar
     9     9     8   ar
    10    10     1   ar
    11     4     8   ar
    12     4    15    1
    13     8     7   ar
    14     1    12    1
    15     1     6   ar
    16     7     6   ar
    17     7    18    1
    18     6     5    1
    19     5    17    1
    20     5    16    1
