UGD
  -OEChem-02242320043D

 36 38  0     1  0  0  0  0  0999 V2000
   -5.0870    2.2020   -0.7380 N   0  0  0  0  0  0  0  0  0  0  0  0
    5.0190    0.5000   -0.5200 N   0  0  0  0  0  0  0  0  0  0  0  0
   -5.5990    2.2570    0.4750 C   0  0  0  0  0  0  0  0  0  0  0  0
   -4.4310    1.1280   -1.1480 C   0  0  0  0  0  0  0  0  0  0  0  0
    0.1120   -1.9490   -0.2520 C   0  0  0  0  0  0  0  0  0  0  0  0
    0.7990   -3.0920    0.1350 C   0  0  0  0  0  0  0  0  0  0  0  0
    2.1200   -3.0040    0.5310 C   0  0  0  0  0  0  0  0  0  0  0  0
    2.0780   -0.6340    0.1590 C   0  0  0  0  0  0  0  0  0  0  0  0
    5.4840    1.7310   -0.2370 C   0  0  0  0  0  0  0  0  0  0  0  0
    6.3430    2.4100   -0.7570 O   0  0  0  0  0  0  0  0  0  0  0  0
    4.5800    1.9820    0.9410 C   0  0  0  0  0  0  0  0  0  0  0  0
    4.0730    0.5820    0.5950 C   0  0  1  0  0  0  0  0  0  0  0  0
    2.7080    0.5700    0.1720 O   0  0  0  0  0  0  0  0  0  0  0  0
    2.7600   -1.7800    0.5440 C   0  0  0  0  0  0  0  0  0  0  0  0
    0.7530   -0.7180   -0.2400 C   0  0  0  0  0  0  0  0  0  0  0  0
   -1.2240   -2.0390   -0.6580 N   0  0  0  0  0  0  0  0  0  0  0  0
   -2.0860   -1.0440   -0.3660 C   0  0  0  0  0  0  0  0  0  0  0  0
   -1.6860   -0.0340    0.1730 O   0  0  0  0  0  0  0  0  0  0  0  0
   -3.5460   -1.1860   -0.7110 C   0  0  0  0  0  0  0  0  0  0  0  0
   -4.2860    0.0550   -0.2840 C   0  0  0  0  0  0  0  0  0  0  0  0
   -5.4810    1.2560    1.3240 N   0  0  0  0  0  0  0  0  0  0  0  0
   -4.8390    0.1500    0.9840 C   0  0  0  0  0  0  0  0  0  0  0  0
    5.2240   -0.1690   -1.1920 H   0  0  0  0  0  0  0  0  0  0  0  0
   -6.1290    3.1470    0.7810 H   0  0  0  0  0  0  0  0  0  0  0  0
   -4.0140    1.0890   -2.1440 H   0  0  0  0  0  0  0  0  0  0  0  0
    0.3010   -4.0510    0.1260 H   0  0  0  0  0  0  0  0  0  0  0  0
    2.6530   -3.8940    0.8310 H   0  0  0  0  0  0  0  0  0  0  0  0
    5.0970    2.0490    1.8980 H   0  0  0  0  0  0  0  0  0  0  0  0
    3.8500    2.7760    0.7860 H   0  0  0  0  0  0  0  0  0  0  0  0
    4.2730   -0.1490    1.3780 H   0  0  0  0  0  0  0  0  0  0  0  0
    3.7920   -1.7140    0.8550 H   0  0  0  0  0  0  0  0  0  0  0  0
    0.2210    0.1720   -0.5400 H   0  0  0  0  0  0  0  0  0  0  0  0
   -1.5310   -2.8170   -1.1490 H   0  0  0  0  0  0  0  0  0  0  0  0
   -3.6540   -1.3210   -1.7870 H   0  0  0  0  0  0  0  0  0  0  0  0
   -3.9590   -2.0520   -0.1930 H   0  0  0  0  0  0  0  0  0  0  0  0
   -4.7460   -0.6660    1.6840 H   0  0  0  0  0  0  0  0  0  0  0  0
  1  3  2  0  0  0  0
  1  4  1  0  0  0  0
  3 21  1  0  0  0  0
  4 20  2  0  0  0  0
 21 22  2  0  0  0  0
 20 22  1  0  0  0  0
 19 20  1  0  0  0  0
 17 19  1  0  0  0  0
 17 18  2  0  0  0  0
 16 17  1  0  0  0  0
  5 16  1  0  0  0  0
  5  6  2  0  0  0  0
  5 15  1  0  0  0  0
  2 12  1  0  0  0  0
  2  9  1  0  0  0  0
  6  7  1  0  0  0  0
  8 15  2  0  0  0  0
  9 10  2  0  0  0  0
 12 13  1  0  0  0  0
 11 12  1  0  0  0  0
  9 11  1  0  0  0  0
  7 14  2  0  0  0  0
  8 14  1  0  0  0  0
  8 13  1  0  0  0  0
  2 23  1  0  0  0  0
  3 24  1  0  0  0  0
  4 25  1  0  0  0  0
  6 26  1  0  0  0  0
  7 27  1  0  0  0  0
 11 28  1  0  0  0  0
 11 29  1  0  0  0  0
 12 30  1  0  0  0  0
 14 31  1  0  0  0  0
 15 32  1  0  0  0  0
 16 33  1  0  0  0  0
 19 34  1  0  0  0  0
 19 35  1  0  0  0  0
 22 36  1  0  0  0  0
M  END
> <OPENEYE_ISO_SMILES>
c1cc(cc(c1)O[C@@H]2CC(=O)N2)NC(=O)Cc3cncnc3

> <OPENEYE_INCHI>
InChI=1S/C15H14N4O3/c20-13(4-10-7-16-9-17-8-10)18-11-2-1-3-12(5-11)22-15-6-14(21)19-15/h1-3,5,7-9,15H,4,6H2,(H,18,20)(H,19,21)/t15-/m1/s1

> <OPENEYE_INCHIKEY>
SGVQMOZIVBYLOT-OAHLLOKOSA-N

> <FORMULA>
C15H14N4O3

$$$$
