@<TRIPOS>MOLECULE
/home/pku/3cl/gett_pdb/5RTU/5RTU_mol2/ligand/5RTU_1FF.pdb
 24 25 0 0 0
SMALL
GASTEIGER

@<TRIPOS>ATOM
      1  O1       -42.8930  -31.9620    2.9410 O.co2 201  1FF201     -0.3035
      2  C11      -43.3220  -32.7790    2.0890 C.2   201  1FF201      0.1221
      3  O2       -43.9610  -33.7840    2.4820 O.co2 201  1FF201     -0.8440
      4  C1       -43.0340  -32.5650    0.6060 C.ar  201  1FF201      0.0524
      5  C3       -42.0150  -31.7590    0.0480 C.ar  201  1FF201      0.0596
      6  N2       -42.0880  -31.8620   -1.2490 N.ar  201  1FF201     -0.1787
      7  N1       -43.0890  -32.6600   -1.5620 N.ar  201  1FF201     -0.2661
      8  C4       -43.4360  -33.0070   -2.9300 C.3   201  1FF201      0.0309
      9  C2       -43.7010  -33.1290   -0.4980 C.ar  201  1FF201      0.0782
     10  C5       -44.8840  -34.0960   -0.4940 C.ar  201  1FF201      0.0007
     11  C10      -46.0860  -33.7140    0.0630 C.ar  201  1FF201     -0.0526
     12  C9       -47.1700  -34.5660    0.0580 C.ar  201  1FF201     -0.0611
     13  C8       -47.0570  -35.8080   -0.5160 C.ar  201  1FF201     -0.0617
     14  C7       -45.8700  -36.2030   -1.0910 C.ar  201  1FF201     -0.0611
     15  C6       -44.7820  -35.3470   -1.0880 C.ar  201  1FF201     -0.0526
     16  H2       -41.3980  -31.2510    0.5230 H     201  1FF201      0.0855
     17  H3       -43.2810  -33.9540   -3.0730 H     201  1FF201      0.0473
     18  H4       -44.3720  -32.8070   -3.0870 H     201  1FF201      0.0473
     19  H5       -42.8880  -32.4930   -3.5430 H     201  1FF201      0.0473
     20  H6       -46.1640  -32.8740    0.4540 H     201  1FF201      0.0624
     21  H7       -47.9690  -34.3070    0.4580 H     201  1FF201      0.0618
     22  H8       -47.7220  -36.3430   -0.4710 H     201  1FF201      0.0618
     23  H9       -45.7930  -37.0490   -1.4650 H     201  1FF201      0.0618
     24  H10      -43.9790  -35.6140   -1.4740 H     201  1FF201      0.0624
@<TRIPOS>UNITY_ATOM_ATTR
3 1
charge -1
@<TRIPOS>BOND
     1    19     8    1
     2    18     8    1
     3    17     8    1
     4     8     7    1
     5     7     6   ar
     6     7     9   ar
     7    24    15    1
     8    23    14    1
     9     6     5   ar
    10    14    15   ar
    11    14    13   ar
    12    15    10   ar
    13    13    22    1
    14    13    12   ar
    15     9    10    1
    16     9     4   ar
    17    10    11   ar
    18     5    16    1
    19     5     4   ar
    20    12    11   ar
    21    12    21    1
    22    11    20    1
    23     4     2    1
    24     2     3   ar
    25     2     1   ar
