@<TRIPOS>MOLECULE
/home/pku/3cl/gett_pdb/7LKU/7LKU_mol2/ligand/7LKU_Y4D.pdb
 32 34 0 0 0
SMALL
GASTEIGER

@<TRIPOS>ATOM
      1  N11       10.3700   20.4330   27.0100 N.am  401  Y4D401     -0.2030
      2  C12       10.8330   21.7200   27.2580 C.2   401  Y4D401      0.2614
      3  C14       13.3050   21.9980   27.7870 C.3   401  Y4D401      0.0312
      4  C15       14.7020   22.4970   27.3600 C.3   401  Y4D401      0.0022
      5  C16       15.1590   21.8410   26.0410 C.3   401  Y4D401      0.0001
      6  O20       10.7890   25.5050   25.5470 O.3   401  Y4D401     -0.4335
      7  C23        7.0050   26.5050   25.0870 C.3   401  Y4D401      0.0037
      8  C24        5.7350   26.7050   25.9660 C.3   401  Y4D401      0.0001
      9  C25        5.9500   26.1890   27.3920 C.3   401  Y4D401      0.0000
     10  C26        7.1520   26.8930   28.0270 C.3   401  Y4D401      0.0001
     11  C27        8.4500   26.6990   27.1890 C.3   401  Y4D401      0.0037
     12  C28        6.7980   28.3880   28.2060 C.3   401  Y4D401      0.0000
     13  C29        6.1880   29.0810   26.9530 C.3   401  Y4D401      0.0000
     14  C02        6.8020   21.0660   24.4690 C.2   401  Y4D401      0.2410
     15  C04        5.7990   22.7350   25.7730 C.3   401  Y4D401      0.1156
     16  C05        6.9620   22.0710   26.5980 C.3   401  Y4D401      0.0326
     17  C06        7.7460   21.1550   25.6610 C.3   401  Y4D401      0.0818
     18  C07        8.0300   19.7840   26.3780 C.3   401  Y4D401      0.0335
     19  C08        9.1140   19.8530   27.4770 C.3   401  Y4D401      0.1287
     20  C09        9.3230   18.4420   28.0410 C.3   401  Y4D401      0.2036
     21  C13       12.1920   22.2260   26.6930 C.3   401  Y4D401      0.1761
     22  C17       15.7540   22.3050   28.4810 C.3   401  Y4D401      0.0001
     23  C19       11.0410   24.1350   25.5790 C.2   401  Y4D401      0.4215
     24  C21        9.5600   25.9930   24.9540 C.3   401  Y4D401      0.2100
     25  C22        8.2330   25.9370   25.8520 C.3   401  Y4D401      0.0439
     26  C30        5.3060   28.1910   26.0290 C.3   401  Y4D401      0.0000
     27  N03        5.7200   21.9470   24.5430 N.am  401  Y4D401     -0.2054
     28  N18       12.1160   23.6290   26.3100 N.am  401  Y4D401     -0.1611
     29  O01        6.9420   20.3030   23.5170 O.2   401  Y4D401     -0.2734
     30  O10       10.1450   18.5400   29.1790 O.3   401  Y4D401     -0.2185
     31  O31       10.2910   23.3780   24.9750 O.2   401  Y4D401     -0.2246
     32  O32       10.1640   22.5230   27.9330 O.2   401  Y4D401     -0.2715
@<TRIPOS>BOND
     1    29    14    2
     2    14    27   am
     3    14    17    1
     4    27    15    1
     5    24     6    1
     6    24    25    1
     7    31    23    2
     8     7    25    1
     9     7     8    1
    10     6    23    1
    11    23    28   am
    12    17    18    1
    13    17    16    1
    14    15    16    1
    15    25    11    1
    16     8    26    1
    17     8     9    1
    18    26    13    1
    19     5     4    1
    20    28    21    1
    21    18    19    1
    22    21     2    1
    23    21     3    1
    24    13    12    1
    25     1     2   am
    26     1    19    1
    27    11    10    1
    28     2    32    2
    29     4     3    1
    30     4    22    1
    31     9    10    1
    32    19    20    1
    33    10    12    1
    34    20    30    1
