UH7
  -OEChem-02242320043D

 31 32  0     0  0  0  0  0  0999 V2000
    1.8260    0.3960    1.0200 N   0  0  0  0  0  0  0  0  0  0  0  0
    2.7980   -1.0610   -0.6510 C   0  0  0  0  0  0  0  0  0  0  0  0
    2.8950    0.0400    0.1900 C   0  0  0  0  0  0  0  0  0  0  0  0
    0.5690    0.0370    0.6910 C   0  0  0  0  0  0  0  0  0  0  0  0
   -0.5660    0.3080    1.6450 C   0  0  0  0  0  0  0  0  0  0  0  0
   -1.8560   -0.1850    1.0430 C   0  0  0  0  0  0  0  0  0  0  0  0
   -3.4620   -1.9340    0.7290 C   0  0  0  0  0  0  0  0  0  0  0  0
   -2.6170    0.6560    0.2540 C   0  0  0  0  0  0  0  0  0  0  0  0
   -4.7580    1.2600   -1.2890 Cl  0  0  0  0  0  0  0  0  0  0  0  0
   -3.8020    0.2030   -0.2980 C   0  0  0  0  0  0  0  0  0  0  0  0
   -4.2240   -1.0930   -0.0600 C   0  0  0  0  0  0  0  0  0  0  0  0
   -2.2760   -1.4820    1.2760 C   0  0  0  0  0  0  0  0  0  0  0  0
    0.3520   -0.5030   -0.3730 O   0  0  0  0  0  0  0  0  0  0  0  0
    4.0720    0.7850    0.1950 C   0  0  0  0  0  0  0  0  0  0  0  0
    4.2210    1.9870    1.0920 C   0  0  0  0  0  0  0  0  0  0  0  0
    3.8050   -1.4020   -1.4310 N   0  0  0  0  0  0  0  0  0  0  0  0
    4.9340   -0.7210   -1.4460 C   0  0  0  0  0  0  0  0  0  0  0  0
    5.1020    0.3930   -0.6450 C   0  0  0  0  0  0  0  0  0  0  0  0
    1.9900    0.8970    1.8340 H   0  0  0  0  0  0  0  0  0  0  0  0
    1.8910   -1.6460   -0.6630 H   0  0  0  0  0  0  0  0  0  0  0  0
   -0.3810   -0.2110    2.5860 H   0  0  0  0  0  0  0  0  0  0  0  0
   -0.6370    1.3800    1.8290 H   0  0  0  0  0  0  0  0  0  0  0  0
   -3.7920   -2.9450    0.9150 H   0  0  0  0  0  0  0  0  0  0  0  0
   -2.2870    1.6680    0.0690 H   0  0  0  0  0  0  0  0  0  0  0  0
   -5.1490   -1.4470   -0.4910 H   0  0  0  0  0  0  0  0  0  0  0  0
   -1.6790   -2.1410    1.8890 H   0  0  0  0  0  0  0  0  0  0  0  0
    4.6350    1.6750    2.0510 H   0  0  0  0  0  0  0  0  0  0  0  0
    4.8920    2.7080    0.6240 H   0  0  0  0  0  0  0  0  0  0  0  0
    3.2460    2.4460    1.2480 H   0  0  0  0  0  0  0  0  0  0  0  0
    5.7350   -1.0330   -2.0990 H   0  0  0  0  0  0  0  0  0  0  0  0
    6.0300    0.9450   -0.6640 H   0  0  0  0  0  0  0  0  0  0  0  0
 16 17  2  0  0  0  0
  2 16  1  0  0  0  0
 17 18  1  0  0  0  0
  2  3  2  0  0  0  0
 14 18  2  0  0  0  0
  3 14  1  0  0  0  0
  1  3  1  0  0  0  0
 14 15  1  0  0  0  0
  1  4  1  0  0  0  0
  9 10  1  0  0  0  0
  4 13  2  0  0  0  0
  4  5  1  0  0  0  0
  8 10  2  0  0  0  0
  6  8  1  0  0  0  0
 10 11  1  0  0  0  0
  5  6  1  0  0  0  0
  6 12  2  0  0  0  0
  7 11  2  0  0  0  0
  7 12  1  0  0  0  0
  1 19  1  0  0  0  0
  2 20  1  0  0  0  0
  5 21  1  0  0  0  0
  5 22  1  0  0  0  0
  7 23  1  0  0  0  0
  8 24  1  0  0  0  0
 11 25  1  0  0  0  0
 12 26  1  0  0  0  0
 15 27  1  0  0  0  0
 15 28  1  0  0  0  0
 15 29  1  0  0  0  0
 17 30  1  0  0  0  0
 18 31  1  0  0  0  0
M  END
> <OPENEYE_ISO_SMILES>
Cc1ccncc1NC(=O)Cc2cccc(c2)Cl

> <OPENEYE_INCHI>
InChI=1S/C14H13ClN2O/c1-10-5-6-16-9-13(10)17-14(18)8-11-3-2-4-12(15)7-11/h2-7,9H,8H2,1H3,(H,17,18)

> <OPENEYE_INCHIKEY>
ZROFBWFSOGSOQG-UHFFFAOYSA-N

> <FORMULA>
C14H13ClN2O

$$$$
