@<TRIPOS>MOLECULE
/home/pku/3cl/gett_pdb/5SOJ/5SOJ_mol2/ligand/5SOJ_RWQ.pdb
 39 42 0 0 0
SMALL
GASTEIGER

@<TRIPOS>ATOM
      1  C18      -46.3300  -29.2120    6.3120 C.ar  201  RWQ201      0.1442
      2  C15      -48.6480  -29.0390    3.4740 C.ar  201  RWQ201     -0.0491
      3  C14      -50.0360  -28.9760    3.5470 C.ar  201  RWQ201     -0.0257
      4  C13      -50.6760  -28.9790    4.7890 C.ar  201  RWQ201      0.1254
      5  C12      -49.9210  -29.0380    5.9530 C.ar  201  RWQ201     -0.0025
      6  C11      -48.5110  -29.1000    5.8850 C.ar  201  RWQ201      0.0515
      7  C10      -47.8800  -29.1050    4.6630 C.ar  201  RWQ201      0.0124
      8  C20      -44.0070  -29.3170    6.1240 C.ar  201  RWQ201      0.1204
      9  C02      -44.8080  -31.7570    0.2640 C.3   201  RWQ201      0.0484
     10  C03      -45.8160  -30.5620    0.5950 C.3   201  RWQ201     -0.0020
     11  C04      -45.3090  -29.3600    0.0000 C.3   201  RWQ201     -0.0453
     12  C05      -44.0300  -28.9600    0.5050 C.3   201  RWQ201     -0.0368
     13  C06      -43.9630  -28.9810    2.0350 C.3   201  RWQ201      0.0135
     14  C08      -45.2530  -29.2130    4.1890 C.ar  201  RWQ201      0.1343
     15  C09      -46.4490  -29.1780    4.9420 C.ar  201  RWQ201      0.0663
     16  C22      -45.9910  -30.4010    2.1110 C.3   201  RWQ201      0.0184
     17  F16      -52.0360  -28.9190    4.8590 F     201  RWQ201     -0.2054
     18  N07      -45.2980  -29.1950    2.7410 N.pl3 201  RWQ201     -0.3142
     19  N17      -47.5690  -29.1660    6.8570 N.ar  201  RWQ201     -0.3389
     20  N19      -45.0940  -29.2820    6.8680 N.ar  201  RWQ201     -0.2178
     21  N21      -44.0730  -29.2840    4.7980 N.ar  201  RWQ201     -0.2200
     22  O01      -44.2260  -32.2580    1.4340 O.3   201  RWQ201     -0.3947
     23 H151      -48.2240  -29.0460    2.6380 H     201  RWQ201      0.0625
     24 H141      -50.5350  -28.9460    2.7640 H     201  RWQ201      0.0646
     25 H121      -50.3340  -29.0410    6.7810 H     201  RWQ201      0.0667
     26 H201      -43.1760  -29.3620    6.5350 H     201  RWQ201      0.1048
     27 H021      -44.0920  -31.4620   -0.3190 H     201  RWQ201      0.0560
     28 H022      -45.3020  -32.4560   -0.1840 H     201  RWQ201      0.0560
     29 H031      -46.6810  -30.7670    0.1910 H     201  RWQ201      0.0338
     30 H042      -45.0630  -29.6260   -0.8650 H     201  RWQ201      0.0270
     31 H041      -45.9770  -28.6220   -0.0520 H     201  RWQ201      0.0270
     32 H051      -43.8410  -28.0710    0.1790 H     201  RWQ201      0.0280
     33 H052      -43.3530  -29.5640    0.1360 H     201  RWQ201      0.0280
     34 H062      -43.6020  -28.1180    2.3090 H     201  RWQ201      0.0464
     35 H061      -43.3450  -29.6730    2.2930 H     201  RWQ201      0.0464
     36 H222      -45.6920  -31.1920    2.5640 H     201  RWQ201      0.0467
     37 H221      -46.9330  -30.3330    2.2590 H     201  RWQ201      0.0467
     38 H171      -47.7310  -29.1790    7.7010 H     201  RWQ201      0.1673
     39 H011      -43.9480  -33.0470    1.2970 H     201  RWQ201      0.2094
@<TRIPOS>BOND
     1    30    11    1
     2    27     9    1
     3    28     9    1
     4    31    11    1
     5    11    12    1
     6    11    10    1
     7    33    12    1
     8    32    12    1
     9    29    10    1
    10     9    10    1
    11     9    22    1
    12    12    13    1
    13    10    16    1
    14    39    22    1
    15    13    35    1
    16    13    34    1
    17    13    18    1
    18    16    37    1
    19    16    36    1
    20    16    18    1
    21    23     2    1
    22    18    14    1
    23    24     3    1
    24     2     3   ar
    25     2     7   ar
    26     3     4   ar
    27    14    21   ar
    28    14    15   ar
    29     7    15   ar
    30     7     6   ar
    31     4    17    1
    32     4     5   ar
    33    21     8   ar
    34    15     1   ar
    35     6     5   ar
    36     6    19   ar
    37     5    25    1
    38     8    26    1
    39     8    20   ar
    40     1    19   ar
    41     1    20   ar
    42    19    38    1
