T4Y
  -OEChem-02242320043D

 40 41  0     1  0  0  0  0  0999 V2000
   -2.6740    0.1000   -0.6050 N   0  0  0  0  0  0  0  0  0  0  0  0
    3.8600    1.8410    0.2080 C   0  0  0  0  0  0  0  0  0  0  0  0
    2.7650    1.3420    0.8890 C   0  0  0  0  0  0  0  0  0  0  0  0
    2.3340    0.0500    0.6540 C   0  0  0  0  0  0  0  0  0  0  0  0
    1.1410   -0.4930    1.3970 C   0  0  0  0  0  0  0  0  0  0  0  0
   -1.0630   -1.4140    1.0390 C   0  0  0  0  0  0  0  0  0  0  0  0
   -2.9650   -1.3470   -0.5730 C   0  0  0  0  0  0  0  0  0  0  0  0
   -3.6110    0.9600   -0.1600 C   0  0  0  0  0  0  0  0  0  0  0  0
   -0.0120   -0.5600    0.4890 N   0  0  1  0  0  0  0  0  0  0  0  0
    2.5290   -2.1520   -0.5190 C   0  0  0  0  0  0  0  0  0  0  0  0
   -3.3960    2.1540   -0.1760 O   0  0  0  0  0  0  0  0  0  0  0  0
    2.9980   -0.7440   -0.2630 C   0  0  0  0  0  0  0  0  0  0  0  0
   -1.4170    0.6310   -1.0930 C   0  0  0  0  0  0  0  0  0  0  0  0
   -0.4070    0.7340    0.0750 C   0  0  0  0  0  0  0  0  0  0  0  0
   -4.9270    0.4380    0.3590 C   0  0  0  0  0  0  0  0  0  0  0  0
    4.0930   -0.2450   -0.9440 C   0  0  0  0  0  0  0  0  0  0  0  0
    4.5230    1.0470   -0.7090 C   0  0  0  0  0  0  0  0  0  0  0  0
   -1.7450   -2.1510   -0.0930 C   0  0  0  0  0  0  0  0  0  0  0  0
    4.1940    2.8520    0.3890 H   0  0  0  0  0  0  0  0  0  0  0  0
    2.2460    1.9620    1.6050 H   0  0  0  0  0  0  0  0  0  0  0  0
    1.3680   -1.4920    1.7690 H   0  0  0  0  0  0  0  0  0  0  0  0
    0.9060    0.1620    2.2350 H   0  0  0  0  0  0  0  0  0  0  0  0
   -0.6240   -2.1330    1.7300 H   0  0  0  0  0  0  0  0  0  0  0  0
   -1.7930   -0.8000    1.5670 H   0  0  0  0  0  0  0  0  0  0  0  0
   -3.8000   -1.5280    0.1040 H   0  0  0  0  0  0  0  0  0  0  0  0
   -3.2400   -1.6780   -1.5740 H   0  0  0  0  0  0  0  0  0  0  0  0
    1.7260   -2.1390   -1.2570 H   0  0  0  0  0  0  0  0  0  0  0  0
    3.3590   -2.7490   -0.8960 H   0  0  0  0  0  0  0  0  0  0  0  0
    2.1610   -2.5880    0.4100 H   0  0  0  0  0  0  0  0  0  0  0  0
   -1.0170   -0.0310   -1.8610 H   0  0  0  0  0  0  0  0  0  0  0  0
   -1.5820    1.6210   -1.5180 H   0  0  0  0  0  0  0  0  0  0  0  0
   -0.8730    1.2550    0.9120 H   0  0  0  0  0  0  0  0  0  0  0  0
    0.4700    1.2920   -0.2530 H   0  0  0  0  0  0  0  0  0  0  0  0
   -4.7470   -0.2190    1.2090 H   0  0  0  0  0  0  0  0  0  0  0  0
   -5.5510    1.2750    0.6720 H   0  0  0  0  0  0  0  0  0  0  0  0
   -5.4330   -0.1180   -0.4300 H   0  0  0  0  0  0  0  0  0  0  0  0
    4.6110   -0.8650   -1.6610 H   0  0  0  0  0  0  0  0  0  0  0  0
    5.3760    1.4380   -1.2440 H   0  0  0  0  0  0  0  0  0  0  0  0
   -1.0450   -2.2760   -0.9190 H   0  0  0  0  0  0  0  0  0  0  0  0
   -2.0710   -3.1310    0.2570 H   0  0  0  0  0  0  0  0  0  0  0  0
 10 12  1  0  0  0  0
 12 16  2  0  0  0  0
 16 17  1  0  0  0  0
  2 17  2  0  0  0  0
  2  3  1  0  0  0  0
  3  4  2  0  0  0  0
  4 12  1  0  0  0  0
  4  5  1  0  0  0  0
  5  9  1  0  0  0  0
  6  9  1  0  0  0  0
  6 18  1  0  0  0  0
  7 18  1  0  0  0  0
  1  7  1  0  0  0  0
  1 13  1  0  0  0  0
 13 14  1  0  0  0  0
  9 14  1  0  0  0  0
  1  8  1  0  0  0  0
  8 11  2  0  0  0  0
  8 15  1  0  0  0  0
  2 19  1  0  0  0  0
  3 20  1  0  0  0  0
  5 21  1  0  0  0  0
  5 22  1  0  0  0  0
  6 23  1  0  0  0  0
  6 24  1  0  0  0  0
  7 25  1  0  0  0  0
  7 26  1  0  0  0  0
 10 27  1  0  0  0  0
 10 28  1  0  0  0  0
 10 29  1  0  0  0  0
 13 30  1  0  0  0  0
 13 31  1  0  0  0  0
 14 32  1  0  0  0  0
 14 33  1  0  0  0  0
 15 34  1  0  0  0  0
 15 35  1  0  0  0  0
 15 36  1  0  0  0  0
 16 37  1  0  0  0  0
 17 38  1  0  0  0  0
 18 39  1  0  0  0  0
 18 40  1  0  0  0  0
M  END
> <OPENEYE_ISO_SMILES>
Cc1ccccc1C[N@]2CCCN(CC2)C(=O)C

> <OPENEYE_INCHI>
InChI=1S/C15H22N2O/c1-13-6-3-4-7-15(13)12-16-8-5-9-17(11-10-16)14(2)18/h3-4,6-7H,5,8-12H2,1-2H3

> <OPENEYE_INCHIKEY>
ADMDDIGRGVTLSU-UHFFFAOYSA-N

> <FORMULA>
C15H22N2O

$$$$
