@<TRIPOS>MOLECULE
/home/pku/3cl/gett_pdb/5RTN/5RTN_mol2/ligand/5RTN_AQO.pdb
 19 20 0 0 0
SMALL
GASTEIGER

@<TRIPOS>ATOM
      1  C1       -46.5790  -29.0270    3.4900 C.ar  201  AQO201     -0.0609
      2  C2       -46.0190  -29.0880    4.7480 C.ar  201  AQO201     -0.0597
      3  C3       -46.8010  -29.1420    5.8750 C.ar  201  AQO201     -0.0354
      4  C4       -48.1770  -29.1310    5.7650 C.ar  201  AQO201      0.0797
      5  N5       -49.0350  -29.2010    7.0040 N.ar  201  AQO201     -0.2160
      6  C6       -50.4550  -29.2050    6.8720 C.ar  201  AQO201      0.1935
      7  N7       -51.2220  -29.2940    8.0660 N.pl3 201  AQO201     -0.3289
      8  N8       -51.0500  -29.1410    5.5800 N.ar  201  AQO201     -0.2948
      9  C9       -50.2260  -29.0730    4.4080 C.ar  201  AQO201      0.2604
     10  O10      -50.6780  -29.0480    3.3150 O.2   201  AQO201     -0.2671
     11  C11      -48.7350  -29.0530    4.5160 C.ar  201  AQO201      0.0648
     12  C12      -47.9560  -29.0290    3.3880 C.ar  201  AQO201     -0.0474
     13  HC1      -46.0440  -28.9760    2.7310 H     201  AQO201      0.0618
     14  HC2      -45.0930  -29.0780    4.8360 H     201  AQO201      0.0618
     15  HC3      -46.4030  -29.1800    6.7150 H     201  AQO201      0.0639
     16  H71      -50.8270  -29.3100    8.8300 H     201  AQO201      0.1451
     17  H72      -52.0810  -29.2760    8.0270 H     201  AQO201      0.1451
     18  H8       -51.9060  -29.1470    5.5020 H     201  AQO201      0.1716
     19  H12      -48.3430  -28.9740    2.5510 H     201  AQO201      0.0626
@<TRIPOS>BOND
     1    19    12    1
     2    13     1    1
     3    10     9    2
     4    12     1   ar
     5    12    11   ar
     6     1     2   ar
     7     9    11   ar
     8     9     8   ar
     9    11     4   ar
    10     2    14    1
    11     2     3   ar
    12    18     8    1
    13     8     6   ar
    14     4     3   ar
    15     4     5   ar
    16     3    15    1
    17     6     5   ar
    18     6     7    1
    19    17     7    1
    20     7    16    1
