SZE
  -OEChem-02242320043D

 27 28  0     1  0  0  0  0  0999 V2000
   -0.1070   -0.2370    0.3320 N   0  0  2  0  0  0  0  0  0  0  0  0
   -2.2450    0.6860   -0.3780 C   0  0  0  0  0  0  0  0  0  0  0  0
    1.2670   -0.2640    0.1170 C   0  0  0  0  0  0  0  0  0  0  0  0
    3.1520   -1.4610   -0.4700 C   0  0  0  0  0  0  0  0  0  0  0  0
    3.9560   -0.3510   -0.3110 C   0  0  0  0  0  0  0  0  0  0  0  0
    3.3850    0.8520    0.0850 C   0  0  0  0  0  0  0  0  0  0  0  0
    1.4220    2.0440    0.6880 F   0  0  0  0  0  0  0  0  0  0  0  0
    2.0190    0.8950    0.3020 C   0  0  0  0  0  0  0  0  0  0  0  0
    1.8510   -1.3920   -0.2560 N   0  0  0  0  0  0  0  0  0  0  0  0
   -0.7060   -1.5580    0.0820 C   0  0  0  0  0  0  0  0  0  0  0  0
   -2.1380   -1.5580    0.6210 C   0  0  0  0  0  0  0  0  0  0  0  0
   -0.7510    0.7800   -0.5110 C   0  0  0  0  0  0  0  0  0  0  0  0
   -2.9210    1.6250   -0.7400 O   0  0  0  0  0  0  0  0  0  0  0  0
   -2.8600   -0.3900    0.1240 N   0  0  0  0  0  0  0  0  0  0  0  0
   -4.3240   -0.3980    0.1780 C   0  0  0  0  0  0  0  0  0  0  0  0
    3.5920   -2.3980   -0.7770 H   0  0  0  0  0  0  0  0  0  0  0  0
    5.0180   -0.4170   -0.4920 H   0  0  0  0  0  0  0  0  0  0  0  0
    3.9930    1.7350    0.2170 H   0  0  0  0  0  0  0  0  0  0  0  0
   -0.7200   -1.7560   -0.9900 H   0  0  0  0  0  0  0  0  0  0  0  0
   -0.1220   -2.3260    0.5880 H   0  0  0  0  0  0  0  0  0  0  0  0
   -2.6480   -2.4640    0.2950 H   0  0  0  0  0  0  0  0  0  0  0  0
   -2.1140   -1.5290    1.7110 H   0  0  0  0  0  0  0  0  0  0  0  0
   -0.4220    1.7710   -0.1990 H   0  0  0  0  0  0  0  0  0  0  0  0
   -0.4700    0.6170   -1.5520 H   0  0  0  0  0  0  0  0  0  0  0  0
   -4.7080    0.5380   -0.2280 H   0  0  0  0  0  0  0  0  0  0  0  0
   -4.7050   -1.2320   -0.4120 H   0  0  0  0  0  0  0  0  0  0  0  0
   -4.6500   -0.5060    1.2120 H   0  0  0  0  0  0  0  0  0  0  0  0
  2 13  2  0  0  0  0
 14 15  1  0  0  0  0
  2 14  1  0  0  0  0
  2 12  1  0  0  0  0
 11 14  1  0  0  0  0
  1 12  1  0  0  0  0
 10 11  1  0  0  0  0
  1 10  1  0  0  0  0
  1  3  1  0  0  0  0
  3  9  2  0  0  0  0
  4  9  1  0  0  0  0
  3  8  1  0  0  0  0
  4  5  2  0  0  0  0
  7  8  1  0  0  0  0
  6  8  2  0  0  0  0
  5  6  1  0  0  0  0
  4 16  1  0  0  0  0
  5 17  1  0  0  0  0
  6 18  1  0  0  0  0
 10 19  1  0  0  0  0
 10 20  1  0  0  0  0
 11 21  1  0  0  0  0
 11 22  1  0  0  0  0
 12 23  1  0  0  0  0
 12 24  1  0  0  0  0
 15 25  1  0  0  0  0
 15 26  1  0  0  0  0
 15 27  1  0  0  0  0
M  END
> <OPENEYE_ISO_SMILES>
CN1CC[N@](CC1=O)c2c(cccn2)F

> <OPENEYE_INCHI>
InChI=1S/C10H12FN3O/c1-13-5-6-14(7-9(13)15)10-8(11)3-2-4-12-10/h2-4H,5-7H2,1H3

> <OPENEYE_INCHIKEY>
LOFSFVFRUNIULW-UHFFFAOYSA-N

> <FORMULA>
C10H12FN3O

$$$$
