@<TRIPOS>MOLECULE
/home/pku/3cl/gett_pdb/7AEG/7AEG_mol2/ligand/7AEG_PHQ.pdb
 20 17 0 0 0
SMALL
GASTEIGER

@<TRIPOS>ATOM
      1  C1        12.7700    4.2690   22.7510 C.3     1  PHQ1        0.3332
      2  C1        12.3030    4.5280   23.1130 C.3     1  PHQ1        0.2491
      3  O1        13.4370    3.3260   23.1130 O.3     1  PHQ1       -0.1862
      4  O1        12.7180    3.9480   24.0920 O.3     1  PHQ1       -0.2123
      5  O2        13.2720    5.4050   22.2440 O.3     1  PHQ1       -0.2180
      6  O2        12.9360    5.5360   22.4920 O.3     1  PHQ1       -0.1864
      7  C2        14.2340    6.0980   23.0770 C.3     1  PHQ1        0.0000
      8  C2        14.0280    6.1590   23.2150 C.3     1  PHQ1        0.1822
      9  C3        13.5660    7.1970   23.8530 C.3     1  PHQ1        0.0355
     10  C3        13.5500    7.4100   23.8970 C.1     1  PHQ1        0.0000
     11  C4        13.5810    8.4970   23.3820 C.1     1  PHQ1        0.0000
     12  C4        13.5070    8.6120   23.2150 C.2     1  PHQ1       -0.0049
     13  C5        12.9780    9.5150   24.1040 C.2     1  PHQ1       -0.0261
     14  C5        13.0790    9.7680   23.8520 C.3     1  PHQ1        0.0000
     15  C6        12.3560    9.2400   25.3000 C.3     1  PHQ1        0.0047
     16  C6        12.6800    9.7260   25.1690 C.3     1  PHQ1        0.0260
     17  C7        12.3410    7.9530   25.7800 C.3     1  PHQ1        0.0000
     18  C7        12.7210    8.5380   25.8570 C.3     1  PHQ1        0.0003
     19  C8        12.9470    6.9340   25.0610 C.3     1  PHQ1        0.0027
     20  C8        13.1570    7.3840   25.2250 C.3     1  PHQ1        0.0001
@<TRIPOS>BOND
     1     5     6    1
     2     5     8    1
     3     6     1    1
     4     1     2    1
     5     1     3    1
     6     2     4    1
     7     3     4    1
     8    12    13    2
     9     8     9    1
    10    11    10    3
    11     9    19    1
    12    13    16    1
    13    19    20    1
    14    16    15    1
    15    20    17    1
    16    15    18    1
    17    17    18    1
