EJW
  -OEChem-02242320023D

 24 25  0     0  0  0  0  0  0999 V2000
    4.0580   -0.4110    0.1330 C   0  0  0  0  0  0  0  0  0  0  0  0
    3.5680    0.8780    0.2430 C   0  0  0  0  0  0  0  0  0  0  0  0
    2.2100    1.1120    0.1640 C   0  0  0  0  0  0  0  0  0  0  0  0
    1.3320    0.0470   -0.0280 C   0  0  0  0  0  0  0  0  0  0  0  0
    1.8310   -1.2490   -0.1380 C   0  0  0  0  0  0  0  0  0  0  0  0
    3.1910   -1.4720   -0.0570 C   0  0  0  0  0  0  0  0  0  0  0  0
   -0.1290    0.2920   -0.1140 C   0  0  0  0  0  0  0  0  0  0  0  0
   -1.1500   -0.6810   -0.3000 C   0  0  0  0  0  0  0  0  0  0  0  0
   -2.2920    0.0430   -0.3090 C   0  0  0  0  0  0  0  0  0  0  0  0
   -3.6930   -0.4880   -0.4750 C   0  0  0  0  0  0  0  0  0  0  0  0
   -0.7390    1.4480   -0.0270 N   0  0  0  0  0  0  0  0  0  0  0  0
   -4.2530   -0.8120    0.8430 N   0  3  0  0  0  0  0  0  0  0  0  0
   -1.9370    1.3240   -0.1400 O   0  0  0  0  0  0  0  0  0  0  0  0
    5.1220   -0.5890    0.1910 H   0  0  0  0  0  0  0  0  0  0  0  0
    4.2490    1.7020    0.3920 H   0  0  0  0  0  0  0  0  0  0  0  0
    1.8290    2.1180    0.2500 H   0  0  0  0  0  0  0  0  0  0  0  0
    1.1550   -2.0780   -0.2870 H   0  0  0  0  0  0  0  0  0  0  0  0
    3.5790   -2.4760   -0.1470 H   0  0  0  0  0  0  0  0  0  0  0  0
   -1.0380   -1.7500   -0.4100 H   0  0  0  0  0  0  0  0  0  0  0  0
   -4.3130    0.2670   -0.9580 H   0  0  0  0  0  0  0  0  0  0  0  0
   -3.6700   -1.3870   -1.0910 H   0  0  0  0  0  0  0  0  0  0  0  0
   -5.1910   -1.1680    0.7320 H   0  0  0  0  0  0  0  0  0  0  0  0
   -3.6800   -1.5110    1.2910 H   0  0  0  0  0  0  0  0  0  0  0  0
   -4.2750    0.0200    1.4130 H   0  0  0  0  0  0  0  0  0  0  0  0
  1  2  2  0  0  0  0
  2  3  1  0  0  0  0
  1  6  1  0  0  0  0
  3  4  2  0  0  0  0
  8  9  2  0  0  0  0
  7  8  1  0  0  0  0
  9 10  1  0  0  0  0
 10 12  1  0  0  0  0
  5  6  2  0  0  0  0
  4  5  1  0  0  0  0
  4  7  1  0  0  0  0
  9 13  1  0  0  0  0
  7 11  2  0  0  0  0
 11 13  1  0  0  0  0
  1 14  1  0  0  0  0
  2 15  1  0  0  0  0
  3 16  1  0  0  0  0
  5 17  1  0  0  0  0
  6 18  1  0  0  0  0
  8 19  1  0  0  0  0
 10 20  1  0  0  0  0
 10 21  1  0  0  0  0
 12 22  1  0  0  0  0
 12 23  1  0  0  0  0
 12 24  1  0  0  0  0
M  CHG  1  12   1
M  END
> <OPENEYE_ISO_SMILES>
c1ccc(cc1)c2cc(on2)C[NH3+]

> <OPENEYE_INCHI>
InChI=1S/C10H10N2O/c11-7-9-6-10(12-13-9)8-4-2-1-3-5-8/h1-6H,7,11H2/p+1

> <OPENEYE_INCHIKEY>
AQZLTCXQTOKUAA-UHFFFAOYSA-O

> <FORMULA>
C10H11N2O+

$$$$
