QK6
  -OEChem-02242320033D

 39 42  0     1  0  0  0  0  0999 V2000
   -2.6390    1.9190   -0.4500 C   0  0  0  0  0  0  0  0  0  0  0  0
   -1.7000   -1.5560    0.3350 C   0  0  0  0  0  0  0  0  0  0  0  0
   -2.5350   -2.6520    0.3220 C   0  0  0  0  0  0  0  0  0  0  0  0
   -3.8750   -2.5060   -0.0110 C   0  0  0  0  0  0  0  0  0  0  0  0
   -4.3860   -1.2650   -0.3320 C   0  0  0  0  0  0  0  0  0  0  0  0
   -3.5580   -0.1480   -0.3240 C   0  0  0  0  0  0  0  0  0  0  0  0
   -1.1350    3.6620   -0.3840 C   0  0  0  0  0  0  0  0  0  0  0  0
    5.0710   -1.1930   -0.7600 C   0  0  0  0  0  0  0  0  0  0  0  0
    4.0330   -0.1570   -1.1070 C   0  0  0  0  0  0  0  0  0  0  0  0
    2.8910   -0.2190   -0.0910 C   0  0  2  0  0  0  0  0  0  0  0  0
    1.7820    0.7500   -0.5100 C   0  0  0  0  0  0  0  0  0  0  0  0
   -0.3260    1.5670    0.1400 C   0  0  0  0  0  0  0  0  0  0  0  0
   -1.6080    1.0460   -0.0700 C   0  0  0  0  0  0  0  0  0  0  0  0
   -2.2030   -0.2970    0.0130 C   0  0  0  0  0  0  0  0  0  0  0  0
    1.2600    1.1300    1.8220 C   0  0  0  0  0  0  0  0  0  0  0  0
    2.3750    0.1580    2.2170 C   0  0  0  0  0  0  0  0  0  0  0  0
   -4.6840   -3.5880   -0.0210 F   0  0  0  0  0  0  0  0  0  0  0  0
    0.7220    0.7430    0.5090 N   0  0  2  0  0  0  0  0  0  0  0  0
   -3.7930    1.1900   -0.5960 N   0  0  0  0  0  0  0  0  0  0  0  0
   -2.3540    3.2140   -0.5900 N   0  0  0  0  0  0  0  0  0  0  0  0
   -0.1370    2.8740   -0.0330 N   0  0  0  0  0  0  0  0  0  0  0  0
    4.9130   -1.9070    0.2010 O   0  0  0  0  0  0  0  0  0  0  0  0
    3.3800    0.1540    1.2000 O   0  0  0  0  0  0  0  0  0  0  0  0
    6.1710   -1.3220   -1.5190 O   0  0  0  0  0  0  0  0  0  0  0  0
   -0.6580   -1.6720    0.5940 H   0  0  0  0  0  0  0  0  0  0  0  0
   -2.1450   -3.6280    0.5720 H   0  0  0  0  0  0  0  0  0  0  0  0
   -5.4300   -1.1610   -0.5900 H   0  0  0  0  0  0  0  0  0  0  0  0
   -0.9420    4.7180   -0.5090 H   0  0  0  0  0  0  0  0  0  0  0  0
    4.4870    0.8340   -1.0840 H   0  0  0  0  0  0  0  0  0  0  0  0
    3.6430   -0.3540   -2.1060 H   0  0  0  0  0  0  0  0  0  0  0  0
    2.4940   -1.2330   -0.0510 H   0  0  0  0  0  0  0  0  0  0  0  0
    2.1920    1.7550   -0.6020 H   0  0  0  0  0  0  0  0  0  0  0  0
    1.3670    0.4360   -1.4680 H   0  0  0  0  0  0  0  0  0  0  0  0
    0.4650    1.0940    2.5660 H   0  0  0  0  0  0  0  0  0  0  0  0
    1.6610    2.1420    1.7670 H   0  0  0  0  0  0  0  0  0  0  0  0
    2.8150    0.4740    3.1630 H   0  0  0  0  0  0  0  0  0  0  0  0
    1.9620   -0.8450    2.3250 H   0  0  0  0  0  0  0  0  0  0  0  0
   -4.6520    1.5590   -0.8550 H   0  0  0  0  0  0  0  0  0  0  0  0
    6.8080   -2.0000   -1.2570 H   0  0  0  0  0  0  0  0  0  0  0  0
  8 22  2  0  0  0  0
  9 10  1  0  0  0  0
 10 11  1  0  0  0  0
 11 18  1  0  0  0  0
 12 13  1  0  0  0  0
 13 14  1  0  0  0  0
  6 14  2  0  0  0  0
  4  5  2  0  0  0  0
  2  3  2  0  0  0  0
  3  4  1  0  0  0  0
  4 17  1  0  0  0  0
  5  6  1  0  0  0  0
  6 19  1  0  0  0  0
  1 19  1  0  0  0  0
  1 20  1  0  0  0  0
  7 20  2  0  0  0  0
  7 21  1  0  0  0  0
 12 18  1  0  0  0  0
 15 18  1  0  0  0  0
 15 16  1  0  0  0  0
 16 23  1  0  0  0  0
  8  9  1  0  0  0  0
  8 24  1  0  0  0  0
 10 23  1  0  0  0  0
 12 21  2  0  0  0  0
  1 13  2  0  0  0  0
  2 14  1  0  0  0  0
  2 25  1  0  0  0  0
  3 26  1  0  0  0  0
  5 27  1  0  0  0  0
  7 28  1  0  0  0  0
  9 29  1  0  0  0  0
  9 30  1  0  0  0  0
 10 31  1  0  0  0  0
 11 32  1  0  0  0  0
 11 33  1  0  0  0  0
 15 34  1  0  0  0  0
 15 35  1  0  0  0  0
 16 36  1  0  0  0  0
 16 37  1  0  0  0  0
 19 38  1  0  0  0  0
 24 39  1  0  0  0  0
M  END
> <OPENEYE_ISO_SMILES>
c1cc2c(cc1F)[nH]c3c2c(ncn3)[N@@]4CCO[C@@H](C4)CC(=O)O

> <OPENEYE_INCHI>
InChI=1S/C16H15FN4O3/c17-9-1-2-11-12(5-9)20-15-14(11)16(19-8-18-15)21-3-4-24-10(7-21)6-13(22)23/h1-2,5,8,10H,3-4,6-7H2,(H,22,23)(H,18,19,20)/t10-/m1/s1

> <OPENEYE_INCHIKEY>
ZSSRFZSFZVHJBJ-SNVBAGLBSA-N

> <FORMULA>
C16H15FN4O3

$$$$
