@<TRIPOS>MOLECULE
/home/pku/3cl/gett_pdb/7JU7/7JU7_mol2/ligand/7JU7_G65.pdb
 36 40 0 0 0
SMALL
GASTEIGER

@<TRIPOS>ATOM
      1  CBE       19.0940    8.3650   27.8470 C.3   401  G65401      0.0899
      2  CBF       19.6740    9.4710   26.9970 C.3   401  G65401      0.0897
      3  NBG       18.8240   10.6600   27.0020 N.3   401  G65401     -0.2691
      4  CBJ       18.7510   11.2450   28.3420 C.3   401  G65401      0.0897
      5  CBH       17.4950   10.3060   26.5170 C.3   401  G65401      0.0897
      6  CBI       16.8950    9.2170   27.3750 C.3   401  G65401      0.0899
      7  NBD       17.7370    8.0140   27.4180 N.3   401  G65401     -0.2665
      8  CBC       17.7160    7.2610   26.1540 C.3   401  G65401      0.0992
      9  CAZ       16.5630    6.2810   26.0510 C.ar  401  G65401     -0.0061
     10  CBA       15.3070    6.6990   25.6250 C.ar  401  G65401     -0.0028
     11  CBB       14.2470    5.8130   25.5390 C.ar  401  G65401      0.0043
     12  CAY       16.7240    4.9410   26.3920 C.ar  401  G65401     -0.0028
     13  CAX       15.6630    4.0520   26.3030 C.ar  401  G65401      0.0043
     14  CAV       14.4110    4.4810   25.8830 C.ar  401  G65401      0.0554
     15  CAU       13.2550    3.5340   25.7770 C.2   401  G65401      0.2690
     16  OAW       13.4040    2.3310   25.9740 O.2   401  G65401     -0.2680
     17  NAT       12.0570    4.0780   25.4550 N.am  401  G65401     -0.1754
     18  CAO       10.8540    3.3640   25.2700 C.ar  401  G65401      0.0750
     19  CAN       10.5490    2.8370   24.0180 C.ar  401  G65401      0.0328
     20  CAP        9.9950    3.1450   26.3420 C.ar  401  G65401      0.0164
     21  CAQ        8.8290    2.4220   26.1550 C.ar  401  G65401     -0.0016
     22  CAR        8.5000    1.8900   24.9020 C.ar  401  G65401     -0.0064
     23  CAS        7.2230    1.1200   24.7220 C.3   401  G65401      0.0324
     24  CAM        9.3700    2.1150   23.8310 C.ar  401  G65401      0.0699
     25  NAL        9.0360    1.5800   22.5650 N.pl3 401  G65401     -0.1888
     26  CAJ        9.8690    1.1150   21.5960 C.ar  401  G65401      0.1834
     27  NAK        9.4560    0.8460   20.3880 N.ar  401  G65401     -0.2225
     28  SAI       11.5520    0.7870   21.8750 S.2   401  G65401     -0.0492
     29  CAH       11.6590    0.1240   20.2870 C.ar  401  G65401      0.0573
     30  CAG       10.4620    0.2150   19.6500 C.ar  401  G65401      0.0913
     31  CAF       10.1230   -0.3040   18.3110 C.ar  401  G65401      0.0374
     32  CAA       11.0410   -0.9850   17.5140 C.ar  401  G65401      0.0047
     33  CAB       10.6570   -1.4790   16.2790 C.ar  401  G65401      0.0207
     34  CAC        9.3520   -1.2730   15.8690 C.ar  401  G65401      0.0989
     35  NAD        8.4490   -0.6250   16.6120 N.ar  401  G65401     -0.2423
     36  CAE        8.8370   -0.1600   17.8120 C.ar  401  G65401      0.1004
@<TRIPOS>BOND
     1    34    33   ar
     2    34    35   ar
     3    33    32   ar
     4    35    36   ar
     5    32    31   ar
     6    36    31   ar
     7    31    30    1
     8    30    29   ar
     9    30    27   ar
    10    29    28   ar
    11    27    26   ar
    12    26    28   ar
    13    26    25    1
    14    25    24    1
    15    24    19   ar
    16    24    22   ar
    17    19    18   ar
    18    23    22    1
    19    22    21   ar
    20    18    17    1
    21    18    20   ar
    22    17    15   am
    23    11    10   ar
    24    11    14   ar
    25    10     9   ar
    26    15    14    1
    27    15    16    2
    28    14    13   ar
    29     9     8    1
    30     9    12   ar
    31     8     7    1
    32    21    20   ar
    33    13    12   ar
    34     5     3    1
    35     5     6    1
    36     2     3    1
    37     2     1    1
    38     3     4    1
    39     6     7    1
    40     7     1    1
