0MI
  -OEChem-02242320003D

 33 34  0     1  0  0  0  0  0999 V2000
    8.2630  -76.6440   14.5940 N   0  0  0  0  0  0  0  0  0  0  0  0
    7.8290  -76.6800   16.0090 C   0  0  0  0  0  0  0  0  0  0  0  0
    6.6790  -78.1410   20.5750 C   0  0  0  0  0  0  0  0  0  0  0  0
    7.7740  -75.8540   13.7130 N   0  3  0  0  0  0  0  0  0  0  0  0
    4.5070  -76.9990   20.5440 C   0  0  0  0  0  0  0  0  0  0  0  0
    8.7610  -76.3970   18.2030 O   0  0  0  0  0  0  0  0  0  0  0  0
    5.0240  -76.1080   19.5350 C   0  0  0  0  0  0  0  0  0  0  0  0
    8.9530  -78.5990   17.3110 C   0  0  2  0  0  0  0  0  0  0  0  0
    8.9250  -77.1090   16.9630 C   0  0  1  0  0  0  0  0  0  0  0  0
    7.2430  -75.0720   13.0360 N   0  5  0  0  0  0  0  0  0  0  0  0
    9.0650  -78.6350   18.8240 C   0  0  0  0  0  0  0  0  0  0  0  0
    8.5370  -77.2910   19.2690 C   0  0  2  0  0  0  0  0  0  0  0  0
    3.3890  -76.9410   21.0090 O   0  0  0  0  0  0  0  0  0  0  0  0
    6.2810  -76.2970   19.1110 C   0  0  0  0  0  0  0  0  0  0  0  0
    5.3850  -77.9610   20.9800 N   0  0  0  0  0  0  0  0  0  0  0  0
    7.1090  -77.2620   19.6120 N   0  0  0  0  0  0  0  0  0  0  0  0
    4.1540  -75.0100   19.0360 C   0  0  0  0  0  0  0  0  0  0  0  0
   10.1400  -79.2110   16.8180 O   0  0  0  0  0  0  0  0  0  0  0  0
    7.4040  -78.9660   21.0780 O   0  0  0  0  0  0  0  0  0  0  0  0
    7.4910  -75.6730   16.2960 H   0  0  0  0  0  0  0  0  0  0  0  0
    6.9910  -77.3870   16.0990 H   0  0  0  0  0  0  0  0  0  0  0  0
    8.0390  -79.1040   16.9660 H   0  0  0  0  0  0  0  0  0  0  0  0
    9.8950  -76.8440   16.5170 H   0  0  0  0  0  0  0  0  0  0  0  0
    6.6090  -74.4980   13.5540 H   0  0  0  0  0  0  0  0  0  0  0  0
    8.4560  -79.4510   19.2410 H   0  0  0  0  0  0  0  0  0  0  0  0
   10.1120  -78.7640   19.1340 H   0  0  0  0  0  0  0  0  0  0  0  0
    9.1170  -76.9690   20.1470 H   0  0  0  0  0  0  0  0  0  0  0  0
    6.6600  -75.6520   18.3320 H   0  0  0  0  0  0  0  0  0  0  0  0
    5.0410  -78.5990   21.6690 H   0  0  0  0  0  0  0  0  0  0  0  0
    3.1740  -75.0640   19.5320 H   0  0  0  0  0  0  0  0  0  0  0  0
    4.6240  -74.0400   19.2580 H   0  0  0  0  0  0  0  0  0  0  0  0
    4.0210  -75.1130   17.9490 H   0  0  0  0  0  0  0  0  0  0  0  0
   10.1380  -80.1340   17.0440 H   0  0  0  0  0  0  0  0  0  0  0  0
  4 10  2  0  0  0  0
  1  4  2  0  0  0  0
  1  2  1  0  0  0  0
  2  9  1  0  0  0  0
  8 18  1  0  0  0  0
  8  9  1  0  0  0  0
  6  9  1  0  0  0  0
  8 11  1  0  0  0  0
  6 12  1  0  0  0  0
 11 12  1  0  0  0  0
  7 17  1  0  0  0  0
  7 14  2  0  0  0  0
 14 16  1  0  0  0  0
 12 16  1  0  0  0  0
  5  7  1  0  0  0  0
  3 16  1  0  0  0  0
  5 15  1  0  0  0  0
  5 13  2  0  0  0  0
  3 15  1  0  0  0  0
  3 19  2  0  0  0  0
  2 20  1  0  0  0  0
  2 21  1  0  0  0  0
  8 22  1  0  0  0  0
  9 23  1  0  0  0  0
 10 24  1  0  0  0  0
 11 25  1  0  0  0  0
 11 26  1  0  0  0  0
 12 27  1  0  0  0  0
 14 28  1  0  0  0  0
 15 29  1  0  0  0  0
 17 30  1  0  0  0  0
 17 31  1  0  0  0  0
 17 32  1  0  0  0  0
 18 33  1  0  0  0  0
M  CHG  2   4   1  10  -1
M  END
> <OPENEYE_ISO_SMILES>
Cc1cn(c(=O)[nH]c1=O)[C@H]2C[C@@H]([C@H](O2)CN=[N+]=[NH-])O

> <OPENEYE_INCHI>
InChI=1S/C10H14N5O4/c1-5-4-15(10(18)13-9(5)17)8-2-6(16)7(19-8)3-12-14-11/h4,6-8,11,16H,2-3H2,1H3,(H,13,17,18)/t6-,7+,8+/m0/s1

> <OPENEYE_INCHIKEY>
WPGIPVMLNBRRLK-XLPZGREQSA-N

> <FORMULA>
C10H14N5O4

$$$$
