@<TRIPOS>MOLECULE
/home/pku/3cl/gett_pdb/5SS8/5SS8_mol2/ligand/5SS8_RLN.pdb
 36 38 0 0 0
SMALL
GASTEIGER

@<TRIPOS>ATOM
      1  C18      -38.6380  -38.9650   -4.6920 C.ar  201  RLN201     -0.0287
      2  C17      -39.8350  -39.0770   -3.8840 C.ar  201  RLN201      0.0787
      3  C15      -41.2640  -40.0660   -2.3530 C.ar  201  RLN201      0.0290
      4  C14      -42.1780  -39.0230   -2.4820 C.ar  201  RLN201     -0.0304
      5  C13      -41.9030  -37.9600   -3.3400 C.ar  201  RLN201      0.0539
      6  C11      -42.9060  -36.8230   -3.5110 C.2   201  RLN201      0.2455
      7  C19      -38.5530  -37.8250   -5.4980 C.ar  201  RLN201     -0.0217
      8  C02      -43.6880  -32.0930    2.1460 C.2   201  RLN201      0.0460
      9  C04      -44.4780  -31.5590    0.9460 C.3   201  RLN201      0.0120
     10  C05      -44.6730  -32.6610   -0.0790 C.ar  201  RLN201     -0.0419
     11  C06      -45.7670  -33.5050   -0.0080 C.ar  201  RLN201     -0.0579
     12  C07      -45.9130  -34.5110   -0.9460 C.ar  201  RLN201     -0.0568
     13  C08      -44.9660  -34.6620   -1.9440 C.ar  201  RLN201     -0.0303
     14  C09      -45.1160  -35.7630   -2.9850 C.3   201  RLN201      0.0371
     15  C21      -40.7090  -38.0060   -4.0580 C.ar  201  RLN201      0.0496
     16  C22      -43.8780  -33.8120   -2.0090 C.ar  201  RLN201     -0.0568
     17  C23      -43.7280  -32.8140   -1.0700 C.ar  201  RLN201     -0.0579
     18  N10      -44.1630  -36.8410   -2.7770 N.am  201  RLN201     -0.3072
     19  N16      -40.1380  -40.0670   -3.0430 N.ar  201  RLN201     -0.2544
     20  O01      -43.2090  -31.3160    3.0160 O.co2 201  RLN201     -0.5495
     21  O03      -43.5240  -33.3360    2.2700 O.co2 201  RLN201     -0.5495
     22  O12      -42.6750  -35.9450   -4.2730 O.2   201  RLN201     -0.2702
     23  S20      -39.9790  -36.9650   -5.1930 S.2   201  RLN201     -0.0943
     24 H181      -37.8630  -39.7180   -4.6780 H     201  RLN201      0.0644
     25 H151      -41.4880  -40.8840   -1.6820 H     201  RLN201      0.0830
     26 H141      -43.0930  -39.0300   -1.9060 H     201  RLN201      0.0640
     27 H191      -37.7440  -37.5520   -6.1690 H     201  RLN201      0.0694
     28 H042      -45.4460  -31.2290    1.2900 H     201  RLN201      0.0373
     29 H041      -43.9590  -30.7220    0.4790 H     201  RLN201      0.0373
     30 H061      -46.5060  -33.3790    0.7730 H     201  RLN201      0.0620
     31 H071      -46.7670  -35.1740   -0.9040 H     201  RLN201      0.0621
     32 H091      -46.1210  -36.1630   -2.9320 H     201  RLN201      0.0512
     33 H092      -44.9500  -35.3440   -3.9680 H     201  RLN201      0.0512
     34 H221      -43.1390  -33.9290   -2.7880 H     201  RLN201      0.0621
     35 H231      -42.8820  -32.1420   -1.1160 H     201  RLN201      0.0620
     36 H101      -44.3650  -37.5860   -2.1360 H     201  RLN201      0.1493
@<TRIPOS>UNITY_ATOM_ATTR
20 1
charge -1
@<TRIPOS>BOND
     1    27     7    1
     2     7    23   ar
     3     7     1   ar
     4    23    15   ar
     5     1    24    1
     6     1     2   ar
     7    22     6    2
     8    15     2   ar
     9    15     5   ar
    10    33    14    1
    11     2    19   ar
    12     6     5    1
    13     6    18   am
    14     5     4   ar
    15    19     3   ar
    16    14    32    1
    17    14    18    1
    18    14    13    1
    19    34    16    1
    20    18    36    1
    21     4     3   ar
    22     4    26    1
    23     3    25    1
    24    16    13   ar
    25    16    17   ar
    26    13    12   ar
    27    35    17    1
    28    17    10   ar
    29    12    31    1
    30    12    11   ar
    31    10    11   ar
    32    10     9    1
    33    11    30    1
    34    29     9    1
    35     9    28    1
    36     9     8    1
    37     8    21   ar
    38     8    20   ar
