@<TRIPOS>MOLECULE
/home/pku/3cl/gett_pdb/5SQG/5SQG_mol2/ligand/5SQG_QQI.pdb
 48 51 0 0 0
SMALL
GASTEIGER

@<TRIPOS>ATOM
      1  C18      -49.2120  -29.0200    6.7290 C.ar  201  QQI201      0.1261
      2  C16      -49.4050  -29.0510    4.4560 C.ar  201  QQI201      0.0418
      3  C15      -48.0230  -29.0860    4.3240 C.ar  201  QQI201      0.0549
      4  C14      -47.3690  -29.1550    2.9310 C.2   201  QQI201      0.2460
      5  C12      -45.3370  -29.7200    1.5790 C.3   201  QQI201      0.0580
      6  C11      -45.2230  -28.3440    0.8630 C.ar  201  QQI201     -0.0199
      7  C10      -46.1640  -27.5710    0.1700 C.ar  201  QQI201     -0.0563
      8  C20      -51.1800  -29.0640    8.3660 C.2   201  QQI201      0.3052
      9  C02      -43.6980  -31.1790    2.8390 C.2   201  QQI201      0.0926
     10  C03      -43.9050  -30.1980    1.6530 C.3   201  QQI201      0.0343
     11  C04      -43.0910  -28.9620    1.8030 C.3   201  QQI201     -0.0132
     12  C05      -43.8890  -27.9040    1.0010 C.ar  201  QQI201     -0.0003
     13  C06      -43.5160  -26.6780    0.4380 C.ar  201  QQI201      0.1204
     14  C08      -44.4530  -25.9110   -0.2540 C.ar  201  QQI201     -0.0199
     15  C09      -45.7790  -26.3500   -0.3880 C.ar  201  QQI201     -0.0580
     16  C22      -52.7780  -29.1240   10.3350 C.3   201  QQI201      0.0247
     17  C23      -52.8090  -28.9720   11.8520 C.3   201  QQI201     -0.0328
     18  C24      -53.0630  -30.3390   11.2190 C.3   201  QQI201     -0.0328
     19  C26      -47.8340  -29.0770    6.6850 C.ar  201  QQI201     -0.0208
     20  C27      -47.2150  -29.1120    5.4530 C.ar  201  QQI201     -0.0449
     21  N13      -45.9720  -29.5990    2.8660 N.am  201  QQI201     -0.3038
     22  N17      -49.9730  -29.0210    5.6490 N.ar  201  QQI201     -0.2393
     23  N19      -49.7650  -29.0160    8.0650 N.am  201  QQI201     -0.2542
     24  N21      -51.4330  -29.0850    9.7950 N.am  201  QQI201     -0.2963
     25  O01      -44.0360  -32.3910    2.7200 O.co2 201  QQI201     -0.8473
     26  O07      -42.1970  -26.2030    0.5390 O.3   201  QQI201     -0.5065
     27  O25      -52.0400  -29.0710    7.5440 O.2   201  QQI201     -0.2525
     28  O28      -47.9890  -28.9060    1.9510 O.2   201  QQI201     -0.2701
     29  O29      -43.1940  -30.7750    3.9250 O.co2 201  QQI201     -0.3086
     30 H161      -50.0260  -29.0430    3.5630 H     201  QQI201      0.0838
     31 H121      -45.9200  -30.4100    0.9580 H     201  QQI201      0.0555
     32 H101      -47.1970  -27.9160    0.0690 H     201  QQI201      0.0621
     33 H031      -43.6540  -30.6770    0.6990 H     201  QQI201      0.0393
     34 H041      -42.1110  -29.1200    1.3380 H     201  QQI201      0.0322
     35 H042      -43.0110  -28.6690    2.8580 H     201  QQI201      0.0322
     36 H081      -44.1480  -24.9620   -0.6870 H     201  QQI201      0.0654
     37 H091      -46.4970  -25.7370   -0.9290 H     201  QQI201      0.0619
     38 H221      -53.6220  -28.7230    9.7760 H     201  QQI201      0.0499
     39 H232      -53.6790  -28.4680   12.2480 H     201  QQI201      0.0284
     40 H231      -51.8360  -28.8480   12.3240 H     201  QQI201      0.0284
     41 H241      -54.0950  -30.6760   11.2270 H     201  QQI201      0.0284
     42 H242      -52.2480  -31.0560   11.3050 H     201  QQI201      0.0284
     43 H261      -47.2580  -29.0950    7.6100 H     201  QQI201      0.0652
     44 H271      -46.1370  -29.1500    5.3820 H     201  QQI201      0.0627
     45 H131      -45.4980  -29.8230    3.7320 H     201  QQI201      0.1496
     46 H191      -49.1290  -29.0320    8.8350 H     201  QQI201      0.1578
     47 H211      -50.6450  -29.0790   10.4180 H     201  QQI201      0.1505
     48 H071      -41.8540  -26.0860   -0.3380 H     201  QQI201      0.2921
@<TRIPOS>UNITY_ATOM_ATTR
25 1
charge -1
@<TRIPOS>BOND
     1    37    15    1
     2    36    14    1
     3    15    14   ar
     4    15     7   ar
     5    48    26    1
     6    14    13   ar
     7    32     7    1
     8     7     6   ar
     9    13    26    1
    10    13    12   ar
    11    33    10    1
    12     6    12   ar
    13     6     5    1
    14    31     5    1
    15    12    11    1
    16    34    11    1
    17     5    10    1
    18     5    21    1
    19    10    11    1
    20    10     9    1
    21    11    35    1
    22    28     4    2
    23    25     9   ar
    24     9    29   ar
    25    21     4   am
    26    21    45    1
    27     4     3    1
    28    30     2    1
    29     3     2   ar
    30     3    20   ar
    31     2    22   ar
    32    44    20    1
    33    20    19   ar
    34    22     1   ar
    35    19     1   ar
    36    19    43    1
    37     1    23    1
    38    27     8    2
    39    23     8   am
    40    23    46    1
    41     8    24   am
    42    38    16    1
    43    24    16    1
    44    24    47    1
    45    16    18    1
    46    16    17    1
    47    18    41    1
    48    18    42    1
    49    18    17    1
    50    17    39    1
    51    17    40    1
