5ZW
  -OEChem-02242320013D

 38 40  0     0  0  0  0  0  0999 V2000
   -3.3650    0.4150   -0.2810 C   0  0  0  0  0  0  0  0  0  0  0  0
   -2.3360    1.4620   -0.4960 C   0  0  0  0  0  0  0  0  0  0  0  0
   -0.1690    2.4740    0.0440 C   0  0  0  0  0  0  0  0  0  0  0  0
    1.1850    1.8650   -0.3360 C   0  0  0  0  0  0  0  0  0  0  0  0
    0.5590   -0.2920    0.5800 C   0  0  0  0  0  0  0  0  0  0  0  0
   -0.8280    0.2310    0.9960 C   0  0  0  0  0  0  0  0  0  0  0  0
    2.8290    0.3420    0.4110 C   0  0  0  0  0  0  0  0  0  0  0  0
   -2.5550    2.3820   -1.2580 O   0  0  0  0  0  0  0  0  0  0  0  0
    3.6050    0.8830   -0.6060 C   0  0  0  0  0  0  0  0  0  0  0  0
    4.8900    0.4230   -0.8120 C   0  0  0  0  0  0  0  0  0  0  0  0
    5.4060   -0.5770   -0.0070 C   0  0  0  0  0  0  0  0  0  0  0  0
    4.6360   -1.1180    1.0080 C   0  0  0  0  0  0  0  0  0  0  0  0
    3.3500   -0.6620    1.2190 C   0  0  0  0  0  0  0  0  0  0  0  0
   -4.3830   -1.6130   -0.9670 C   0  0  0  0  0  0  0  0  0  0  0  0
   -5.2340   -0.5490    0.9330 C   0  0  0  0  0  0  0  0  0  0  0  0
   -4.2280    0.5070    0.7630 C   0  0  0  0  0  0  0  0  0  0  0  0
   -3.4580   -0.6550   -1.1440 N   0  0  0  0  0  0  0  0  0  0  0  0
   -5.2570   -1.5720    0.0540 N   0  0  0  0  0  0  0  0  0  0  0  0
   -1.1580    1.3920    0.1550 N   0  0  0  0  0  0  0  0  0  0  0  0
    1.5300    0.8100    0.6260 N   0  0  0  0  0  0  0  0  0  0  0  0
   -4.4310   -2.5410   -1.7500 O   0  0  0  0  0  0  0  0  0  0  0  0
   -6.0270   -0.5060    1.8550 O   0  0  0  0  0  0  0  0  0  0  0  0
    7.0220   -1.1540   -0.2690 Cl  0  0  0  0  0  0  0  0  0  0  0  0
   -0.0820    2.9910    1.0000 H   0  0  0  0  0  0  0  0  0  0  0  0
   -0.4820    3.1790   -0.7260 H   0  0  0  0  0  0  0  0  0  0  0  0
    1.1240    1.4390   -1.3370 H   0  0  0  0  0  0  0  0  0  0  0  0
    1.9510    2.6400   -0.3160 H   0  0  0  0  0  0  0  0  0  0  0  0
    0.8720   -1.0810    1.2630 H   0  0  0  0  0  0  0  0  0  0  0  0
    0.5070   -0.6880   -0.4340 H   0  0  0  0  0  0  0  0  0  0  0  0
   -1.5730   -0.5520    0.8540 H   0  0  0  0  0  0  0  0  0  0  0  0
   -0.8070    0.5300    2.0440 H   0  0  0  0  0  0  0  0  0  0  0  0
    3.2020    1.6630   -1.2350 H   0  0  0  0  0  0  0  0  0  0  0  0
    5.4940    0.8430   -1.6030 H   0  0  0  0  0  0  0  0  0  0  0  0
    5.0410   -1.8990    1.6350 H   0  0  0  0  0  0  0  0  0  0  0  0
    2.7490   -1.0850    2.0100 H   0  0  0  0  0  0  0  0  0  0  0  0
   -4.1760    1.3360    1.4530 H   0  0  0  0  0  0  0  0  0  0  0  0
   -2.8440   -0.7180   -1.8930 H   0  0  0  0  0  0  0  0  0  0  0  0
   -5.9160   -2.2770    0.1530 H   0  0  0  0  0  0  0  0  0  0  0  0
 15 22  2  0  0  0  0
 15 16  1  0  0  0  0
 15 18  1  0  0  0  0
  1 16  2  0  0  0  0
 14 18  1  0  0  0  0
  1 17  1  0  0  0  0
  1  2  1  0  0  0  0
 14 17  1  0  0  0  0
 14 21  2  0  0  0  0
  2  8  2  0  0  0  0
  2 19  1  0  0  0  0
  3  4  1  0  0  0  0
  4 20  1  0  0  0  0
  9 10  2  0  0  0  0
  7  9  1  0  0  0  0
  3 19  1  0  0  0  0
  6 19  1  0  0  0  0
 10 11  1  0  0  0  0
  5 20  1  0  0  0  0
  5  6  1  0  0  0  0
  7 20  1  0  0  0  0
  7 13  2  0  0  0  0
 11 23  1  0  0  0  0
 11 12  2  0  0  0  0
 12 13  1  0  0  0  0
  3 24  1  0  0  0  0
  3 25  1  0  0  0  0
  4 26  1  0  0  0  0
  4 27  1  0  0  0  0
  5 28  1  0  0  0  0
  5 29  1  0  0  0  0
  6 30  1  0  0  0  0
  6 31  1  0  0  0  0
  9 32  1  0  0  0  0
 10 33  1  0  0  0  0
 12 34  1  0  0  0  0
 13 35  1  0  0  0  0
 16 36  1  0  0  0  0
 17 37  1  0  0  0  0
 18 38  1  0  0  0  0
M  END
> <OPENEYE_ISO_SMILES>
c1cc(ccc1N2CCN(CC2)C(=O)c3cc(=O)[nH]c(=O)[nH]3)Cl

> <OPENEYE_INCHI>
InChI=1S/C15H15ClN4O3/c16-10-1-3-11(4-2-10)19-5-7-20(8-6-19)14(22)12-9-13(21)18-15(23)17-12/h1-4,9H,5-8H2,(H2,17,18,21,23)

> <OPENEYE_INCHIKEY>
UPTYXISDRSIHCH-UHFFFAOYSA-N

> <FORMULA>
C15H15ClN4O3

$$$$
