@<TRIPOS>MOLECULE
/home/pku/3cl/gett_pdb/8E4R/8E4R_mol2/ligand/8E4R_K36.pdb
 29 30 0 0 0
SMALL
GASTEIGER

@<TRIPOS>ATOM
      1  C7         8.5170   17.4140    2.1650 C.3   401  K36401      0.2368
      2  O8         7.6040   16.7090    1.2780 O.3   401  K36401     -0.4285
      3  C9         7.6650   15.3490    1.3410 C.2   401  K36401      0.4218
      4  O10        8.3640   14.7400    2.1480 O.2   401  K36401     -0.2245
      5  C1         8.0710   18.8490    2.2250 C.ar  401  K36401      0.0213
      6  C2         8.5770   19.7120    3.2070 C.ar  401  K36401     -0.0007
      7  C3         8.1650   21.0460    3.2570 C.ar  401  K36401     -0.0002
      8  C4         7.2420   21.5280    2.3230 C.ar  401  K36401     -0.0000
      9  C5         6.7340   20.6740    1.3400 C.ar  401  K36401     -0.0002
     10  C6         7.1460   19.3410    1.2930 C.ar  401  K36401     -0.0007
     11  N11        6.8550   14.8160    0.3960 N.am  401  K36401     -0.1611
     12  C12        6.7620   13.3990    0.0640 C.3   401  K36401      0.1761
     13  C17        8.1230   12.9310   -0.4850 C.2   401  K36401      0.2614
     14  O18        8.6680   13.5490   -1.4120 O.2   401  K36401     -0.2715
     15  C13        5.6460   13.0110   -0.9260 C.3   401  K36401      0.0312
     16  C14        4.2030   13.2630   -0.4400 C.3   401  K36401      0.0022
     17  C15        3.1440   13.2230   -1.5460 C.3   401  K36401      0.0001
     18  C16        3.8600   12.2270    0.6420 C.3   401  K36401      0.0001
     19  N19        8.7400   11.8590    0.0530 N.am  401  K36401     -0.2030
     20  C20        9.9710   11.1990   -0.3590 C.3   401  K36401      0.1287
     21  C21        9.6640    9.8170   -0.9500 C.3   401  K36401      0.2036
     22  O22       10.8580    9.2620   -1.4510 O.3   401  K36401     -0.2185
     23  C24       10.9380   11.0980    0.8370 C.3   401  K36401      0.0335
     24  C25       11.4630   12.4640    1.2900 C.3   401  K36401      0.0818
     25  C26       12.2710   13.2690    0.2490 C.3   401  K36401      0.0326
     26  C27       13.3060   14.0480    1.0780 C.3   401  K36401      0.1156
     27  N28       13.4410   13.2240    2.2810 N.am  401  K36401     -0.2054
     28  C29       12.4150   12.3670    2.4850 C.2   401  K36401      0.2410
     29  O30       12.2620   11.6450    3.4800 O.2   401  K36401     -0.2734
@<TRIPOS>BOND
     1    17    16    1
     2    22    21    1
     3    14    13    2
     4    21    20    1
     5    15    16    1
     6    15    12    1
     7    13    19   am
     8    13    12    1
     9    16    18    1
    10    20    19    1
    11    20    23    1
    12    12    11    1
    13    25    26    1
    14    25    24    1
    15    11     3   am
    16    23    24    1
    17    26    27    1
    18     2     3    1
    19     2     1    1
    20    24    28    1
    21    10     9   ar
    22    10     5   ar
    23     9     8   ar
    24     3     4    2
    25     1     5    1
    26     5     6   ar
    27    27    28   am
    28     8     7   ar
    29    28    29    2
    30     6     7   ar
