@<TRIPOS>MOLECULE
/home/pku/3cl/gett_pdb/7LKR/7LKR_mol2/ligand/7LKR_Y4D.pdb
 32 34 0 0 0
SMALL
GASTEIGER

@<TRIPOS>ATOM
      1  N11        9.9790   20.3450   27.4190 N.am  401  Y4D401     -0.2030
      2  C12       10.4540   21.5800   27.8010 C.2   401  Y4D401      0.2614
      3  C14       12.9410   21.9490   28.2970 C.3   401  Y4D401      0.0312
      4  C15       14.3450   22.3590   27.7910 C.3   401  Y4D401      0.0022
      5  C16       14.7520   21.5710   26.5400 C.3   401  Y4D401      0.0001
      6  O20       10.3260   25.4250   26.1210 O.3   401  Y4D401     -0.4335
      7  C23        6.5550   26.3660   25.5660 C.3   401  Y4D401      0.0037
      8  C24        5.2880   26.5770   26.4470 C.3   401  Y4D401      0.0001
      9  C25        5.5080   26.0680   27.8740 C.3   401  Y4D401      0.0000
     10  C26        6.6950   26.7960   28.5050 C.3   401  Y4D401      0.0001
     11  C27        7.9860   26.6530   27.6480 C.3   401  Y4D401      0.0037
     12  C28        6.2970   28.2770   28.6970 C.3   401  Y4D401      0.0000
     13  C29        5.6830   28.9660   27.4440 C.3   401  Y4D401      0.0000
     14  C02        6.4160   20.9690   24.8640 C.2   401  Y4D401      0.2410
     15  C04        5.4020   22.6110   26.1880 C.3   401  Y4D401      0.1156
     16  C05        6.5280   21.8950   27.0270 C.3   401  Y4D401      0.0326
     17  C06        7.3490   21.0400   26.0750 C.3   401  Y4D401      0.0818
     18  C07        7.6700   19.6600   26.7270 C.3   401  Y4D401      0.0335
     19  C08        8.7280   19.7310   27.8660 C.3   401  Y4D401      0.1287
     20  C09        8.9430   18.3340   28.4140 C.3   401  Y4D401      0.2036
     21  C13       11.8030   22.1760   27.2520 C.3   401  Y4D401      0.1761
     22  C17       15.4310   22.2090   28.9000 C.3   401  Y4D401      0.0001
     23  C19       10.6480   24.0790   26.1370 C.2   401  Y4D401      0.4215
     24  C21        9.1220   25.8620   25.4710 C.3   401  Y4D401      0.2100
     25  C22        7.7910   25.8300   26.3430 C.3   401  Y4D401      0.0439
     26  C30        4.8500   28.0620   26.4870 C.3   401  Y4D401      0.0000
     27  N03        5.3390   21.8510   24.9350 N.am  401  Y4D401     -0.2054
     28  N18       11.6700   23.6080   26.9430 N.am  401  Y4D401     -0.1611
     29  O01        6.5780   20.2350   23.8950 O.2   401  Y4D401     -0.2734
     30  O10        9.7560   18.4370   29.5640 O.3   401  Y4D401     -0.2185
     31  O31       10.0070   23.3040   25.4410 O.2   401  Y4D401     -0.2246
     32  O32        9.7940   22.2690   28.5870 O.2   401  Y4D401     -0.2715
@<TRIPOS>BOND
     1    29    14    2
     2    14    27   am
     3    14    17    1
     4    27    15    1
     5    31    23    2
     6    24     6    1
     7    24    25    1
     8     7    25    1
     9     7     8    1
    10    17    18    1
    11    17    16    1
    12     6    23    1
    13    23    28   am
    14    15    16    1
    15    25    11    1
    16     8    26    1
    17     8     9    1
    18    26    13    1
    19     5     4    1
    20    18    19    1
    21    28    21    1
    22    21     2    1
    23    21     3    1
    24     1     2   am
    25     1    19    1
    26    13    12    1
    27    11    10    1
    28     4     3    1
    29     4    22    1
    30     2    32    2
    31    19    20    1
    32     9    10    1
    33    20    30    1
    34    10    12    1
