US8
  -OEChem-02242320043D

 37 39  0     0  0  0  0  0  0999 V2000
   -1.6100   -2.3100   -0.0090 N   0  0  0  0  0  0  0  0  0  0  0  0
    1.4170    0.0860   -0.0070 C   0  0  0  0  0  0  0  0  0  0  0  0
    2.7790    0.6590   -0.0020 C   0  0  0  0  0  0  0  0  0  0  0  0
    2.9580    2.0430   -0.0160 C   0  0  0  0  0  0  0  0  0  0  0  0
    4.2320    2.5720   -0.0110 C   0  0  0  0  0  0  0  0  0  0  0  0
    5.3320    1.7320    0.0070 C   0  0  0  0  0  0  0  0  0  0  0  0
    3.8930   -0.1820    0.0220 C   0  0  0  0  0  0  0  0  0  0  0  0
   -2.3250   -4.6780    0.0030 C   0  0  0  0  0  0  0  0  0  0  0  0
   -3.9090    3.9030   -0.6620 C   0  0  0  0  0  0  0  0  0  0  0  0
   -3.1970   -0.1420   -0.0470 O   0  0  0  0  0  0  0  0  0  0  0  0
   -2.2270    0.5920   -0.0410 C   0  0  0  0  0  0  0  0  0  0  0  0
   -0.8760    0.0220   -0.0200 C   0  0  0  0  0  0  0  0  0  0  0  0
   -0.6310   -1.3300   -0.0060 C   0  0  0  0  0  0  0  0  0  0  0  0
    1.0480   -1.6310    0.0160 S   0  0  0  0  0  0  0  0  0  0  0  0
    5.1620    0.3590    0.0210 C   0  0  0  0  0  0  0  0  0  0  0  0
    0.2830    0.8030   -0.0250 C   0  0  0  0  0  0  0  0  0  0  0  0
   -1.2600   -3.6110    0.0060 C   0  0  0  0  0  0  0  0  0  0  0  0
   -0.0890   -3.9240    0.0220 O   0  0  0  0  0  0  0  0  0  0  0  0
   -2.3940    1.9300   -0.0540 N   0  0  0  0  0  0  0  0  0  0  0  0
   -3.7430    2.4990   -0.0750 C   0  0  0  0  0  0  0  0  0  0  0  0
   -4.0230    3.6870    0.8490 C   0  0  0  0  0  0  0  0  0  0  0  0
   -2.5470   -2.0590   -0.0170 H   0  0  0  0  0  0  0  0  0  0  0  0
    2.1000    2.7000   -0.0320 H   0  0  0  0  0  0  0  0  0  0  0  0
    4.3720    3.6420   -0.0220 H   0  0  0  0  0  0  0  0  0  0  0  0
    6.3280    2.1510    0.0100 H   0  0  0  0  0  0  0  0  0  0  0  0
    3.7620   -1.2540    0.0370 H   0  0  0  0  0  0  0  0  0  0  0  0
   -3.3090   -4.2090   -0.0120 H   0  0  0  0  0  0  0  0  0  0  0  0
   -2.2080   -5.3050   -0.8810 H   0  0  0  0  0  0  0  0  0  0  0  0
   -2.2280   -5.2910    0.8990 H   0  0  0  0  0  0  0  0  0  0  0  0
   -3.0130    4.4020   -1.0320 H   0  0  0  0  0  0  0  0  0  0  0  0
   -4.8260    4.1130   -1.2120 H   0  0  0  0  0  0  0  0  0  0  0  0
    6.0250   -0.2900    0.0350 H   0  0  0  0  0  0  0  0  0  0  0  0
    0.2670    1.8830   -0.0350 H   0  0  0  0  0  0  0  0  0  0  0  0
   -1.6200    2.5150   -0.0490 H   0  0  0  0  0  0  0  0  0  0  0  0
   -4.5520    1.7870   -0.2380 H   0  0  0  0  0  0  0  0  0  0  0  0
   -3.2040    4.0440    1.4720 H   0  0  0  0  0  0  0  0  0  0  0  0
   -5.0160    3.7560    1.2930 H   0  0  0  0  0  0  0  0  0  0  0  0
  9 21  1  0  0  0  0
 20 21  1  0  0  0  0
 10 11  2  0  0  0  0
  9 20  1  0  0  0  0
 19 20  1  0  0  0  0
 11 19  1  0  0  0  0
 11 12  1  0  0  0  0
 17 18  2  0  0  0  0
  1 17  1  0  0  0  0
  1 13  1  0  0  0  0
 12 13  2  0  0  0  0
 12 16  1  0  0  0  0
  8 17  1  0  0  0  0
 13 14  1  0  0  0  0
  2 16  2  0  0  0  0
  2 14  1  0  0  0  0
  2  3  1  0  0  0  0
  3  4  2  0  0  0  0
  4  5  1  0  0  0  0
  3  7  1  0  0  0  0
  5  6  2  0  0  0  0
  7 15  2  0  0  0  0
  6 15  1  0  0  0  0
  1 22  1  0  0  0  0
  4 23  1  0  0  0  0
  5 24  1  0  0  0  0
  6 25  1  0  0  0  0
  7 26  1  0  0  0  0
  8 27  1  0  0  0  0
  8 28  1  0  0  0  0
  8 29  1  0  0  0  0
  9 30  1  0  0  0  0
  9 31  1  0  0  0  0
 15 32  1  0  0  0  0
 16 33  1  0  0  0  0
 19 34  1  0  0  0  0
 20 35  1  0  0  0  0
 21 36  1  0  0  0  0
 21 37  1  0  0  0  0
M  END
> <OPENEYE_ISO_SMILES>
CC(=O)Nc1c(cc(s1)c2ccccc2)C(=O)NC3CC3

> <OPENEYE_INCHI>
InChI=1S/C16H16N2O2S/c1-10(19)17-16-13(15(20)18-12-7-8-12)9-14(21-16)11-5-3-2-4-6-11/h2-6,9,12H,7-8H2,1H3,(H,17,19)(H,18,20)

> <OPENEYE_INCHIKEY>
XGQYGJKFUOSIIU-UHFFFAOYSA-N

> <FORMULA>
C16H16N2O2S

$$$$
