@<TRIPOS>MOLECULE
/home/pku/3cl/gett_pdb/7SPO/7SPO_mol2/ligand/7SPO_NAG.pdb
 26 26 0 0 0
SMALL
GASTEIGER

@<TRIPOS>ATOM
      1  C1        -0.7940  -27.3110   13.7830 C.3     1  NAG1        0.1079
      2  C2         0.0320  -27.7910   14.9870 C.3     1  NAG1        0.0802
      3  C3        -0.8620  -28.0910   16.1920 C.3     1  NAG1        0.1076
      4  C4        -1.7900  -26.9250   16.5040 C.3     1  NAG1        0.1495
      5  C5        -2.5920  -26.6020   15.2480 C.3     1  NAG1        0.1170
      6  C6        -3.5570  -25.4510   15.4300 C.3     1  NAG1        0.1116
      7  C7         2.1220  -29.0830   14.8410 C.2     1  NAG1        0.2103
      8  C8         2.7420  -30.3800   14.4140 C.3     1  NAG1        0.0122
      9  N2         0.8070  -28.9730   14.6410 N.am    1  NAG1       -0.3075
     10  O3        -0.0200  -28.3820   17.3030 O.3     1  NAG1       -0.3871
     11  O4        -2.6850  -27.2690   17.5590 O.3     1  NAG1       -0.2256
     12  O5        -1.6870  -26.2420   14.1930 O.3     1  NAG1       -0.3637
     13  O6        -3.0200  -24.2230   14.9580 O.3     1  NAG1       -0.2320
     14  O7         2.7810  -28.1830   15.3570 O.2     1  NAG1       -0.2761
     15  H1        -1.3220  -28.0560   13.4390 H       1  NAG1        0.0642
     16  H2         0.6340  -27.0650   15.2380 H       1  NAG1        0.0551
     17  H3        -1.4270  -28.8620   15.9950 H       1  NAG1        0.0641
     18  H4        -1.2700  -26.1490   16.7870 H       1  NAG1        0.0682
     19  H5        -3.1030  -27.3880   14.9780 H       1  NAG1        0.0648
     20  H61       -3.7660  -25.3600   16.3790 H       1  NAG1        0.0618
     21  H62       -4.3770  -25.6460   14.9390 H       1  NAG1        0.0618
     22  H81        3.1070  -30.8390   15.1940 H       1  NAG1        0.0322
     23  H82        2.0640  -30.9420   13.9930 H       1  NAG1        0.0322
     24  H83        3.4600  -30.2030   13.7760 H       1  NAG1        0.0322
     25  HN2        0.3680  -29.6790   14.2650 H       1  NAG1        0.1491
     26  HO3        0.0370  -27.6610   17.8230 H       1  NAG1        0.2100
@<TRIPOS>BOND
     1    15     1    1
     2    24     8    1
     3     1    12    1
     4     1     2    1
     5    23     8    1
     6    12     5    1
     7    25     9    1
     8     8     7    1
     9     8    22    1
    10     9     7   am
    11     9     2    1
    12     7    14    2
    13    21     6    1
    14    13     6    1
    15    19     5    1
    16     2    16    1
    17     2     3    1
    18     5     6    1
    19     5     4    1
    20     6    20    1
    21    17     3    1
    22     3     4    1
    23     3    10    1
    24     4    18    1
    25     4    11    1
    26    10    26    1
