@<TRIPOS>MOLECULE
/home/pku/3cl/gett_pdb/7DPU/7DPU_mol2/ligand/7DPU_HER.pdb
 24 26 0 0 0
SMALL
GASTEIGER

@<TRIPOS>ATOM
      1  C4        13.5050   14.7470   39.2440 C.ar  401  HER401      0.2376
      2  C5        13.2320   13.7730   40.1890 C.ar  401  HER401      0.0487
      3  C6        14.2330   13.3870   41.0910 C.ar  401  HER401      0.0445
      4  C7        14.0450   12.3020   42.0600 C.ar  401  HER401      0.1873
      5  C8        14.5270   11.5990   44.2910 C.ar  401  HER401      0.1547
      6  C10       13.5470    9.9960   42.7010 C.ar  401  HER401      0.2433
      7  C13       15.0100   11.0600   46.5450 C.ar  401  HER401      0.1450
      8  C15       14.0590    9.3890   45.1000 C.ar  401  HER401      0.2048
      9  C1        15.5140   13.9350   40.9680 C.ar  401  HER401      0.0487
     10  C11       13.6000   11.0560   41.7310 C.ar  401  HER401      0.2685
     11  C12       15.0150   11.9980   45.5230 C.ar  401  HER401      0.0747
     12  C14       14.5330    9.7530   46.3390 C.ar  401  HER401      0.0792
     13  C16       16.0590   12.6130   48.0120 C.3   401  HER401      0.2525
     14  C2        15.7820   14.9010   40.0240 C.ar  401  HER401      0.2376
     15  C3        14.7770   15.3160   39.1550 C.ar  401  HER401      0.2727
     16  C9        14.0450   10.3160   44.0330 C.ar  401  HER401      0.1158
     17  O1        14.5480   12.5490   43.3120 O.2   401  HER401     -0.4498
     18  O2        13.0980    8.8630   42.3890 O.2   401  HER401     -0.2828
     19  O3        13.1510   10.7880   40.4790 O.3   401  HER401     -0.2798
     20  O4        13.6040    8.1310   44.9020 O.3   401  HER401     -0.2862
     21  O5        15.4690   11.3350   47.7950 O.3   401  HER401     -0.4712
     22  O6        17.0240   15.4660   39.9220 O.3   401  HER401     -0.2830
     23  O7        15.0520   16.2740   38.2230 O.3   401  HER401     -0.2797
     24  O8        12.5560   15.1830   38.3620 O.3   401  HER401     -0.2830
@<TRIPOS>BOND
     1    23    15    1
     2    24     1    1
     3    15     1   ar
     4    15    14   ar
     5     1     2   ar
     6    22    14    1
     7    14     9   ar
     8     2     3   ar
     9    19    10    1
    10     9     3   ar
    11     3     4    1
    12    10     4   ar
    13    10     6   ar
    14     4    17   ar
    15    18     6    2
    16     6    16   ar
    17    17     5   ar
    18    16     5   ar
    19    16     8   ar
    20     5    11   ar
    21    20     8    1
    22     8    12   ar
    23    11     7   ar
    24    12     7   ar
    25     7    21    1
    26    21    13    1
