7YI
  -OEChem-02242320013D

 72 75  0     1  0  0  0  0  0999 V2000
    8.8800    2.9780   -0.3480 C   0  0  0  0  0  0  0  0  0  0  0  0
    1.6020   -1.5490    0.2620 C   0  0  2  0  0  0  0  0  0  0  0  0
    0.2900   -0.9740   -0.2070 C   0  0  0  0  0  0  0  0  0  0  0  0
   -2.1130   -1.1570   -0.5690 C   0  0  2  0  0  0  0  0  0  0  0  0
   -2.7070   -0.4930    0.6470 C   0  0  0  0  0  0  0  0  0  0  0  0
   -4.4830    0.7620    1.7450 C   0  0  1  0  0  0  0  0  0  0  0  0
   -5.4520    1.8610    1.3030 C   0  0  0  0  0  0  0  0  0  0  0  0
    8.5690    2.4120    0.8740 C   0  0  0  0  0  0  0  0  0  0  0  0
   -4.6770    2.9640    0.5790 C   0  0  2  0  0  0  0  0  0  0  0  0
   -5.6310    4.1030    0.1490 C   0  0  0  0  0  0  0  0  0  0  0  0
   -5.9860    3.6880   -1.2960 C   0  0  0  0  0  0  0  0  0  0  0  0
   -4.1100    2.4440   -0.7240 C   0  0  0  0  0  0  0  0  0  0  0  0
   -5.2360   -0.2780    2.5760 C   0  0  0  0  0  0  0  0  0  0  0  0
   -3.3780   -2.6470   -3.6280 C   0  0  0  0  0  0  0  0  0  0  0  0
   -3.2700   -4.0270   -2.9760 C   0  0  0  0  0  0  0  0  0  0  0  0
    7.7220    1.3220    0.9350 C   0  0  0  0  0  0  0  0  0  0  0  0
    1.4630   -2.0220    1.7100 C   0  0  0  0  0  0  0  0  0  0  0  0
    2.6950   -2.6430    2.3710 C   0  0  0  0  0  0  0  0  0  0  0  0
    1.5140   -3.5300    1.9690 C   0  0  0  0  0  0  0  0  0  0  0  0
   -3.0550   -2.2570   -1.0610 C   0  0  0  0  0  0  0  0  0  0  0  0
    7.1850    0.7980   -0.2260 C   0  0  0  0  0  0  0  0  0  0  0  0
    7.4960    1.3640   -1.4480 C   0  0  0  0  0  0  0  0  0  0  0  0
    8.3390    2.4580   -1.5090 C   0  0  0  0  0  0  0  0  0  0  0  0
    6.2620   -0.3920   -0.1600 C   0  0  0  0  0  0  0  0  0  0  0  0
   -2.5220   -2.8350   -2.3740 C   0  0  0  0  0  0  0  0  0  0  0  0
    3.9350   -0.8790    0.0520 C   0  0  0  0  0  0  0  0  0  0  0  0
    2.6420   -0.5210    0.1810 N   0  0  0  0  0  0  0  0  0  0  0  0
   -0.8160   -1.7440   -0.2200 N   0  0  0  0  0  0  0  0  0  0  0  0
   -3.9050    0.1180    0.5630 N   0  0  0  0  0  0  0  0  0  0  0  0
   -4.8580    2.8690   -1.7560 N   0  0  0  0  0  0  0  0  0  0  0  0
   -3.1230    1.7460   -0.8220 O   0  0  0  0  0  0  0  0  0  0  0  0
   -6.3520   -0.7680    1.8300 O   0  0  0  0  0  0  0  0  0  0  0  0
    4.2380   -2.0540    0.0020 O   0  0  0  0  0  0  0  0  0  0  0  0
    0.2300    0.1810   -0.5720 O   0  0  0  0  0  0  0  0  0  0  0  0
   -2.1070   -0.5090    1.7010 O   0  0  0  0  0  0  0  0  0  0  0  0
    4.8910    0.0660   -0.0220 O   0  0  0  0  0  0  0  0  0  0  0  0
    9.5420    3.8300   -0.3960 H   0  0  0  0  0  0  0  0  0  0  0  0
    1.8760   -2.3930   -0.3720 H   0  0  0  0  0  0  0  0  0  0  0  0
   -1.9760   -0.4160   -1.3570 H   0  0  0  0  0  0  0  0  0  0  0  0
   -3.6860    1.2010    2.3450 H   0  0  0  0  0  0  0  0  0  0  0  0
   -6.1980    1.4390    0.6300 H   0  0  0  0  0  0  0  0  0  0  0  0
   -5.9480    2.2810    2.1780 H   0  0  0  0  0  0  0  0  0  0  0  0
    8.9880    2.8210    1.7810 H   0  0  0  0  0  0  0  0  0  0  0  0
   -3.8810    3.3500    1.2150 H   0  0  0  0  0  0  0  0  0  0  0  0
   -6.5210    4.1240    0.7780 H   0  0  0  0  0  0  0  0  0  0  0  0
   -5.1210    5.0650    0.1640 H   0  0  0  0  0  0  0  0  0  0  0  0
   -6.9050    3.1030   -1.3060 H   0  0  0  0  0  0  0  0  0  0  0  0
   -6.0920    4.5710   -1.9270 H   0  0  0  0  0  0  0  0  0  0  0  0
   -4.5680   -1.1050    2.8160 H   0  0  0  0  0  0  0  0  0  0  0  0
   -5.5900    0.1820    3.4990 H   0  0  0  0  0  0  0  0  0  0  0  0
   -2.8580   -2.4950   -4.5740 H   0  0  0  0  0  0  0  0  0  0  0  0
   -4.3210   -2.1110   -3.5180 H   0  0  0  0  0  0  0  0  0  0  0  0
   -4.1410   -4.3990   -2.4370 H   0  0  0  0  0  0  0  0  0  0  0  0
   -2.6780   -4.7830   -3.4930 H   0  0  0  0  0  0  0  0  0  0  0  0
    7.4790    0.8790    1.8900 H   0  0  0  0  0  0  0  0  0  0  0  0
    0.8020   -1.4260    2.3380 H   0  0  0  0  0  0  0  0  0  0  0  0
    3.6050   -2.7150    1.7750 H   0  0  0  0  0  0  0  0  0  0  0  0
    2.8450   -2.4550    3.4350 H   0  0  0  0  0  0  0  0  0  0  0  0
    0.8860   -3.9240    2.7670 H   0  0  0  0  0  0  0  0  0  0  0  0
    1.6460   -4.1840    1.1070 H   0  0  0  0  0  0  0  0  0  0  0  0
   -3.1130   -3.0480   -0.3130 H   0  0  0  0  0  0  0  0  0  0  0  0
   -4.0480   -1.8390   -1.2250 H   0  0  0  0  0  0  0  0  0  0  0  0
    7.0730    0.9570   -2.3550 H   0  0  0  0  0  0  0  0  0  0  0  0
    8.5810    2.9010   -2.4640 H   0  0  0  0  0  0  0  0  0  0  0  0
    6.3590   -0.9780   -1.0740 H   0  0  0  0  0  0  0  0  0  0  0  0
    6.5270   -1.0100    0.6980 H   0  0  0  0  0  0  0  0  0  0  0  0
   -1.4390   -2.8070   -2.4940 H   0  0  0  0  0  0  0  0  0  0  0  0
    2.4010    0.4180    0.2210 H   0  0  0  0  0  0  0  0  0  0  0  0
   -0.7540   -2.6860    0.0010 H   0  0  0  0  0  0  0  0  0  0  0  0
   -4.3850    0.1300   -0.2800 H   0  0  0  0  0  0  0  0  0  0  0  0
   -4.6760    2.6600   -2.6860 H   0  0  0  0  0  0  0  0  0  0  0  0
   -6.8760   -1.4330    2.2970 H   0  0  0  0  0  0  0  0  0  0  0  0
 13 32  1  0  0  0  0
  6 13  1  0  0  0  0
 15 25  1  0  0  0  0
 14 15  1  0  0  0  0
 20 25  1  0  0  0  0
  4 20  1  0  0  0  0
  5 35  2  0  0  0  0
 14 25  1  0  0  0  0
  6 29  1  0  0  0  0
  6  7  1  0  0  0  0
  4  5  1  0  0  0  0
  5 29  1  0  0  0  0
  4 28  1  0  0  0  0
  3 28  1  0  0  0  0
  9 10  1  0  0  0  0
 10 11  1  0  0  0  0
  7  9  1  0  0  0  0
 18 19  1  0  0  0  0
 17 19  1  0  0  0  0
  9 12  1  0  0  0  0
  2  3  1  0  0  0  0
  3 34  2  0  0  0  0
 11 30  1  0  0  0  0
  2 17  1  0  0  0  0
  2 27  1  0  0  0  0
 17 18  1  0  0  0  0
 26 33  2  0  0  0  0
 12 30  1  0  0  0  0
 12 31  2  0  0  0  0
 26 27  1  0  0  0  0
 26 36  1  0  0  0  0
 22 23  2  0  0  0  0
 21 22  1  0  0  0  0
  1 23  1  0  0  0  0
 24 36  1  0  0  0  0
 21 24  1  0  0  0  0
 16 21  2  0  0  0  0
  1  8  2  0  0  0  0
  8 16  1  0  0  0  0
  1 37  1  0  0  0  0
  2 38  1  0  0  0  0
  4 39  1  0  0  0  0
  6 40  1  0  0  0  0
  7 41  1  0  0  0  0
  7 42  1  0  0  0  0
  8 43  1  0  0  0  0
  9 44  1  0  0  0  0
 10 45  1  0  0  0  0
 10 46  1  0  0  0  0
 11 47  1  0  0  0  0
 11 48  1  0  0  0  0
 13 49  1  0  0  0  0
 13 50  1  0  0  0  0
 14 51  1  0  0  0  0
 14 52  1  0  0  0  0
 15 53  1  0  0  0  0
 15 54  1  0  0  0  0
 16 55  1  0  0  0  0
 17 56  1  0  0  0  0
 18 57  1  0  0  0  0
 18 58  1  0  0  0  0
 19 59  1  0  0  0  0
 19 60  1  0  0  0  0
 20 61  1  0  0  0  0
 20 62  1  0  0  0  0
 22 63  1  0  0  0  0
 23 64  1  0  0  0  0
 24 65  1  0  0  0  0
 24 66  1  0  0  0  0
 25 67  1  0  0  0  0
 27 68  1  0  0  0  0
 28 69  1  0  0  0  0
 29 70  1  0  0  0  0
 30 71  1  0  0  0  0
 32 72  1  0  0  0  0
M  END
> <OPENEYE_ISO_SMILES>
c1ccc(cc1)COC(=O)N[C@@H](C2CC2)C(=O)N[C@@H](CC3CC3)C(=O)N[C@@H](C[C@@H]4CCNC4=O)CO

> <OPENEYE_INCHI>
InChI=1S/C26H36N4O6/c31-14-20(13-19-10-11-27-23(19)32)28-24(33)21(12-16-6-7-16)29-25(34)22(18-8-9-18)30-26(35)36-15-17-4-2-1-3-5-17/h1-5,16,18-22,31H,6-15H2,(H,27,32)(H,28,33)(H,29,34)(H,30,35)/t19-,20-,21-,22-/m0/s1

> <OPENEYE_INCHIKEY>
BSCNPZMWSUCVAP-CMOCDZPBSA-N

> <FORMULA>
C26H36N4O6

$$$$
