JH4
  -OEChem-02242320033D

 15 15  0     0  0  0  0  0  0999 V2000
    2.7870    0.4290   -0.0010 C   0  0  0  0  0  0  0  0  0  0  0  0
    1.7690   -0.6240   -0.0020 N   0  0  0  0  0  0  0  0  0  0  0  0
    0.4260   -0.2880    0.0020 C   0  0  0  0  0  0  0  0  0  0  0  0
    0.0790    0.9910    0.0020 N   0  0  0  0  0  0  0  0  0  0  0  0
   -1.1950    1.3460   -0.0000 C   0  0  0  0  0  0  0  0  0  0  0  0
   -2.1710    0.3620   -0.0010 C   0  0  0  0  0  0  0  0  0  0  0  0
   -1.7730   -0.9650   -0.0010 C   0  0  0  0  0  0  0  0  0  0  0  0
   -0.4820   -1.2530    0.0010 N   0  0  0  0  0  0  0  0  0  0  0  0
    3.7790   -0.0250   -0.0040 H   0  0  0  0  0  0  0  0  0  0  0  0
    2.6690    1.0500   -0.8880 H   0  0  0  0  0  0  0  0  0  0  0  0
    2.6730    1.0440    0.8920 H   0  0  0  0  0  0  0  0  0  0  0  0
    2.0350   -1.5570   -0.0050 H   0  0  0  0  0  0  0  0  0  0  0  0
   -1.4710    2.3900   -0.0010 H   0  0  0  0  0  0  0  0  0  0  0  0
   -3.2190    0.6250   -0.0030 H   0  0  0  0  0  0  0  0  0  0  0  0
   -2.5090   -1.7560   -0.0010 H   0  0  0  0  0  0  0  0  0  0  0  0
  5  6  2  0  0  0  0
  4  5  1  0  0  0  0
  6  7  1  0  0  0  0
  3  4  2  0  0  0  0
  7  8  2  0  0  0  0
  3  8  1  0  0  0  0
  2  3  1  0  0  0  0
  1  2  1  0  0  0  0
  1  9  1  0  0  0  0
  1 10  1  0  0  0  0
  1 11  1  0  0  0  0
  2 12  1  0  0  0  0
  5 13  1  0  0  0  0
  6 14  1  0  0  0  0
  7 15  1  0  0  0  0
M  END
> <OPENEYE_ISO_SMILES>
CNc1ncccn1

> <OPENEYE_INCHI>
InChI=1S/C5H7N3/c1-6-5-7-3-2-4-8-5/h2-4H,1H3,(H,6,7,8)

> <OPENEYE_INCHIKEY>
BQNXHDSGGRTFNX-UHFFFAOYSA-N

> <FORMULA>
C5H7N3

$$$$
