XF8
  -OEChem-02242320043D

 85 87  0     1  0  0  0  0  0999 V2000
    2.1130    0.0780    0.9340 C   0  0  0  0  0  0  0  0  0  0  0  0
   -0.3160    0.1910    1.0900 C   0  0  1  0  0  0  0  0  0  0  0  0
   -0.6040    1.5870    1.6450 C   0  0  0  0  0  0  0  0  0  0  0  0
    0.4890    1.9750    2.6430 C   0  0  0  0  0  0  0  0  0  0  0  0
    0.2710    3.4180    3.1030 C   0  0  0  0  0  0  0  0  0  0  0  0
    0.4310    1.0400    3.8520 C   0  0  0  0  0  0  0  0  0  0  0  0
   -1.4550   -0.2420    0.2030 C   0  0  0  0  0  0  0  0  0  0  0  0
   -3.8270   -0.6440   -0.1820 C   0  0  1  0  0  0  0  0  0  0  0  0
   -4.2440   -2.1050    0.0030 C   0  0  0  0  0  0  0  0  0  0  0  0
   -3.1220   -3.0210   -0.4880 C   0  0  1  0  0  0  0  0  0  0  0  0
   -2.0630   -3.1810    0.5800 C   0  0  0  0  0  0  0  0  0  0  0  0
   -2.4510   -5.3120   -0.2570 C   0  0  0  0  0  0  0  0  0  0  0  0
   -3.6540   -4.4550   -0.7130 C   0  0  0  0  0  0  0  0  0  0  0  0
   -5.0060    0.2700    0.1600 C   0  0  2  0  0  0  0  0  0  0  0  0
   -4.5570    1.7080    0.1100 C   0  0  0  0  0  0  0  0  0  0  0  0
   -3.6330    3.6190   -1.0850 C   0  0  0  0  0  0  0  0  0  0  0  0
   -3.6480    4.3170   -2.4470 C   0  0  0  0  0  0  0  0  0  0  0  0
   -2.3170    3.9240   -1.8030 C   0  0  0  0  0  0  0  0  0  0  0  0
    4.4950   -0.0610    0.9540 C   0  0  0  0  0  0  0  0  0  0  0  0
    5.6740   -0.0100   -0.0200 C   0  0  0  0  0  0  0  0  0  0  0  0
    5.5390   -1.1380   -1.0440 C   0  0  0  0  0  0  0  0  0  0  0  0
    5.6800    1.3380   -0.7440 C   0  0  0  0  0  0  0  0  0  0  0  0
    8.4500   -0.1130   -0.3650 C   0  0  0  0  0  0  0  0  0  0  0  0
    8.0690    0.0500   -1.6920 C   0  0  0  0  0  0  0  0  0  0  0  0
    9.0310    0.1310   -2.6790 C   0  0  0  0  0  0  0  0  0  0  0  0
   10.3720    0.0490   -2.3490 C   0  0  0  0  0  0  0  0  0  0  0  0
   10.7540   -0.1120   -1.0300 C   0  0  0  0  0  0  0  0  0  0  0  0
    9.7980   -0.1940   -0.0370 C   0  0  0  0  0  0  0  0  0  0  0  0
    0.9250    0.2200    0.3130 N   0  0  0  0  0  0  0  0  0  0  0  0
   -2.7010   -0.3420    0.7050 N   0  0  0  0  0  0  0  0  0  0  0  0
   -1.7100   -4.4740    0.6920 N   0  0  0  0  0  0  0  0  0  0  0  0
   -4.0690    2.2220   -1.0360 N   0  0  0  0  0  0  0  0  0  0  0  0
    2.1540   -0.0760    2.1390 O   0  0  0  0  0  0  0  0  0  0  0  0
   -1.5990   -2.2750    1.2400 O   0  0  0  0  0  0  0  0  0  0  0  0
   -5.4800   -0.0360    1.4730 O   0  0  0  0  0  0  0  0  0  0  0  0
   -4.6360    2.4030    1.1010 O   0  0  0  0  0  0  0  0  0  0  0  0
   -1.2490   -0.5000   -0.9650 O   0  0  0  0  0  0  0  0  0  0  0  0
    3.2530    0.0990    0.2190 O   0  0  0  0  0  0  0  0  0  0  0  0
    7.2260   -0.2090    0.8990 S   0  0  0  0  0  0  0  0  0  0  0  0
   -0.2120   -0.5130    1.9160 H   0  0  0  0  0  0  0  0  0  0  0  0
   -0.6210    2.3070    0.8260 H   0  0  0  0  0  0  0  0  0  0  0  0
   -1.5710    1.5870    2.1480 H   0  0  0  0  0  0  0  0  0  0  0  0
    1.4640    1.8900    2.1640 H   0  0  0  0  0  0  0  0  0  0  0  0
   -0.7050    3.5030    3.5820 H   0  0  0  0  0  0  0  0  0  0  0  0
    1.0490    3.6940    3.8140 H   0  0  0  0  0  0  0  0  0  0  0  0
    0.3120    4.0840    2.2410 H   0  0  0  0  0  0  0  0  0  0  0  0
    0.5860    0.0120    3.5240 H   0  0  0  0  0  0  0  0  0  0  0  0
    1.2100    1.3160    4.5630 H   0  0  0  0  0  0  0  0  0  0  0  0
   -0.5450    1.1250    4.3310 H   0  0  0  0  0  0  0  0  0  0  0  0
   -3.5280   -0.4790   -1.2170 H   0  0  0  0  0  0  0  0  0  0  0  0
   -4.4350   -2.2970    1.0590 H   0  0  0  0  0  0  0  0  0  0  0  0
   -5.1490   -2.2990   -0.5720 H   0  0  0  0  0  0  0  0  0  0  0  0
   -2.6840   -2.6280   -1.4060 H   0  0  0  0  0  0  0  0  0  0  0  0
   -2.8000   -6.2200    0.2340 H   0  0  0  0  0  0  0  0  0  0  0  0
   -1.8220   -5.5640   -1.1110 H   0  0  0  0  0  0  0  0  0  0  0  0
   -4.5280   -4.6490   -0.0920 H   0  0  0  0  0  0  0  0  0  0  0  0
   -3.8790   -4.6280   -1.7650 H   0  0  0  0  0  0  0  0  0  0  0  0
   -3.8800    4.2200   -0.2090 H   0  0  0  0  0  0  0  0  0  0  0  0
   -3.9830    3.7360   -3.3060 H   0  0  0  0  0  0  0  0  0  0  0  0
   -3.9050    5.3760   -2.4670 H   0  0  0  0  0  0  0  0  0  0  0  0
   -1.6980    4.7260   -1.4000 H   0  0  0  0  0  0  0  0  0  0  0  0
   -1.7750    3.0850   -2.2390 H   0  0  0  0  0  0  0  0  0  0  0  0
    4.4910   -1.0210    1.4700 H   0  0  0  0  0  0  0  0  0  0  0  0
    4.5910    0.7430    1.6840 H   0  0  0  0  0  0  0  0  0  0  0  0
    4.7350   -0.9020   -1.7410 H   0  0  0  0  0  0  0  0  0  0  0  0
    6.4750   -1.2470   -1.5910 H   0  0  0  0  0  0  0  0  0  0  0  0
    5.3090   -2.0710   -0.5280 H   0  0  0  0  0  0  0  0  0  0  0  0
    5.7430    2.1430   -0.0120 H   0  0  0  0  0  0  0  0  0  0  0  0
    6.5390    1.3870   -1.4130 H   0  0  0  0  0  0  0  0  0  0  0  0
    4.7620    1.4440   -1.3220 H   0  0  0  0  0  0  0  0  0  0  0  0
    7.0230    0.1120   -1.9510 H   0  0  0  0  0  0  0  0  0  0  0  0
    8.7370    0.2570   -3.7110 H   0  0  0  0  0  0  0  0  0  0  0  0
   11.1220    0.1120   -3.1230 H   0  0  0  0  0  0  0  0  0  0  0  0
   11.8020   -0.1760   -0.7760 H   0  0  0  0  0  0  0  0  0  0  0  0
   10.0970   -0.3200    0.9930 H   0  0  0  0  0  0  0  0  0  0  0  0
    0.8920    0.3430   -0.6490 H   0  0  0  0  0  0  0  0  0  0  0  0
   -2.8530   -0.2130    1.6550 H   0  0  0  0  0  0  0  0  0  0  0  0
   -1.0510   -4.8090    1.3200 H   0  0  0  0  0  0  0  0  0  0  0  0
   -4.0060    1.6660   -1.8290 H   0  0  0  0  0  0  0  0  0  0  0  0
   -4.8170    0.0810    2.1680 H   0  0  0  0  0  0  0  0  0  0  0  0
   -6.3400    0.0100   -1.0410 S   0  0  0  0  0  0  0  0  0  0  0  0
   -5.7040    0.3180   -2.3880 O   0  0  0  0  0  0  0  0  0  0  0  0
   -6.6790   -1.3680   -1.1200 O   0  0  0  0  0  0  0  0  0  0  0  0
   -7.3450    1.0040   -0.8920 O   0  0  0  0  0  0  0  0  0  0  0  0
   -6.3060    0.2210   -3.1390 H   0  0  0  0  0  0  0  0  0  0  0  0
 23 39  1  0  0  0  0
 20 39  1  0  0  0  0
 23 24  2  0  0  0  0
 24 25  1  0  0  0  0
 23 28  1  0  0  0  0
 25 26  2  0  0  0  0
 27 28  2  0  0  0  0
 20 22  1  0  0  0  0
 26 27  1  0  0  0  0
 19 20  1  0  0  0  0
 20 21  1  0  0  0  0
 11 34  2  0  0  0  0
 19 38  1  0  0  0  0
 11 31  1  0  0  0  0
 10 11  1  0  0  0  0
  1 33  2  0  0  0  0
 12 31  1  0  0  0  0
  1 38  1  0  0  0  0
  1 29  1  0  0  0  0
  9 10  1  0  0  0  0
 10 13  1  0  0  0  0
 12 13  1  0  0  0  0
  4  6  1  0  0  0  0
  8  9  1  0  0  0  0
  2 29  1  0  0  0  0
  2  7  1  0  0  0  0
  2  3  1  0  0  0  0
  7 30  1  0  0  0  0
  8 30  1  0  0  0  0
  3  4  1  0  0  0  0
  4  5  1  0  0  0  0
  7 37  2  0  0  0  0
  8 14  1  0  0  0  0
 14 35  1  0  0  0  0
 14 15  1  0  0  0  0
 15 36  2  0  0  0  0
 15 32  1  0  0  0  0
 16 32  1  0  0  0  0
 16 17  1  0  0  0  0
 16 18  1  0  0  0  0
 17 18  1  0  0  0  0
  2 40  1  0  0  0  0
  3 41  1  0  0  0  0
  3 42  1  0  0  0  0
  4 43  1  0  0  0  0
  5 44  1  0  0  0  0
  5 45  1  0  0  0  0
  5 46  1  0  0  0  0
  6 47  1  0  0  0  0
  6 48  1  0  0  0  0
  6 49  1  0  0  0  0
  8 50  1  0  0  0  0
  9 51  1  0  0  0  0
  9 52  1  0  0  0  0
 10 53  1  0  0  0  0
 12 54  1  0  0  0  0
 12 55  1  0  0  0  0
 13 56  1  0  0  0  0
 13 57  1  0  0  0  0
 16 58  1  0  0  0  0
 17 59  1  0  0  0  0
 17 60  1  0  0  0  0
 18 61  1  0  0  0  0
 18 62  1  0  0  0  0
 19 63  1  0  0  0  0
 19 64  1  0  0  0  0
 21 65  1  0  0  0  0
 21 66  1  0  0  0  0
 21 67  1  0  0  0  0
 22 68  1  0  0  0  0
 22 69  1  0  0  0  0
 22 70  1  0  0  0  0
 24 71  1  0  0  0  0
 25 72  1  0  0  0  0
 26 73  1  0  0  0  0
 27 74  1  0  0  0  0
 28 75  1  0  0  0  0
 29 76  1  0  0  0  0
 30 77  1  0  0  0  0
 31 78  1  0  0  0  0
 32 79  1  0  0  0  0
 35 80  1  0  0  0  0
 14 81  1  0  0  0  0
 81 82  1  0  0  0  0
 81 83  2  0  0  0  0
 81 84  2  0  0  0  0
 82 85  1  0  0  0  0
M  END
> <OPENEYE_ISO_SMILES>
CC(C)C[C@@H](C(=O)N[C@@H](C[C@@H]1CCNC1=O)[C@](C(=O)NC2CC2)(O)S(=O)(=O)O)NC(=O)OCC(C)(C)Sc3ccccc3

> <OPENEYE_INCHI>
InChI=1S/C28H42N4O9S2/c1-17(2)14-21(31-26(36)41-16-27(3,4)42-20-8-6-5-7-9-20)24(34)32-22(15-18-12-13-29-23(18)33)28(37,43(38,39)40)25(35)30-19-10-11-19/h5-9,17-19,21-22,37H,10-16H2,1-4H3,(H,29,33)(H,30,35)(H,31,36)(H,32,34)(H,38,39,40)/t18-,21-,22-,28-/m0/s1

> <OPENEYE_INCHIKEY>
MVHBODFTFWPKCE-ZYAAQSTJSA-N

> <FORMULA>
C28H42N4O9S2

$$$$
