@<TRIPOS>MOLECULE
/home/pku/3cl/gett_pdb/5SRR/5SRR_mol2/ligand/5SRR_RF0.pdb
 41 44 0 0 0
SMALL
GASTEIGER

@<TRIPOS>ATOM
      1  C18      -44.1830  -29.4200    6.2530 C.ar  201  RF0201      0.1204
      2  C16      -46.5140  -29.3200    6.4090 C.ar  201  RF0201      0.1442
      3  C13      -48.8240  -29.0580    3.5930 C.ar  201  RF0201     -0.0491
      4  C12      -50.2210  -28.9730    3.6890 C.ar  201  RF0201     -0.0257
      5  C11      -50.7860  -29.0320    4.9770 C.ar  201  RF0201      0.1254
      6  C10      -50.0520  -29.1330    6.1460 C.ar  201  RF0201     -0.0025
      7  C20      -45.9840  -30.4730    2.1490 C.3   201  RF0201      0.0422
      8  C01      -42.3650  -30.1730    0.0350 C.3   201  RF0201      0.0395
      9  C03      -44.3000  -28.7870    0.5920 C.3   201  RF0201      0.1748
     10  C04      -44.1520  -28.9330    2.1270 C.3   201  RF0201      0.0647
     11  C06      -45.4320  -29.3130    4.2800 C.ar  201  RF0201      0.1346
     12  C07      -46.6370  -29.2710    5.0060 C.ar  201  RF0201      0.0663
     13  C08      -48.0220  -29.1740    4.7510 C.ar  201  RF0201      0.0124
     14  C09      -48.6570  -29.1870    6.0480 C.ar  201  RF0201      0.0515
     15  C21      -46.2200  -30.2060    0.6530 C.3   201  RF0201      0.1003
     16  C23      -47.2880  -29.1300    0.5330 C.3   201  RF0201      0.0720
     17  F14      -52.1490  -28.9670    5.0830 F     201  RF0201     -0.2054
     18  N05      -45.4310  -29.2900    2.8070 N.pl3 201  RF0201     -0.3072
     19  N15      -47.7330  -29.2910    6.9740 N.ar  201  RF0201     -0.3389
     20  N17      -45.2930  -29.3940    6.9890 N.ar  201  RF0201     -0.2178
     21  N19      -44.2090  -29.3750    4.9270 N.ar  201  RF0201     -0.2200
     22  O02      -42.9630  -28.8560    0.0460 O.3   201  RF0201     -0.3529
     23  O22      -45.0680  -29.7690   -0.0260 O.3   201  RF0201     -0.3427
     24  O24      -47.6660  -28.9740   -0.8270 O.3   201  RF0201     -0.3924
     25 H181      -43.2310  -29.4720    6.8060 H     201  RF0201      0.1048
     26 H131      -48.3920  -29.0780    2.6700 H     201  RF0201      0.0625
     27 H121      -50.8760  -28.9650    2.7630 H     201  RF0201      0.0646
     28 H101      -50.5660  -29.1230    7.1130 H     201  RF0201      0.0667
     29 H201      -45.2990  -31.3140    2.3110 H     201  RF0201      0.0490
     30 H202      -46.8970  -30.6940    2.5800 H     201  RF0201      0.0490
     31 H013      -41.3330  -30.1180    0.3960 H     201  RF0201      0.0525
     32 H011      -42.3690  -30.5870   -1.0150 H     201  RF0201      0.0525
     33 H012      -42.9170  -30.7970    0.6510 H     201  RF0201      0.0525
     34 H031      -44.7240  -27.8130    0.3670 H     201  RF0201      0.0926
     35 H042      -43.7720  -27.9630    2.5610 H     201  RF0201      0.0514
     36 H041      -43.4210  -29.7290    2.3550 H     201  RF0201      0.0514
     37 H211      -46.5590  -31.1810    0.1570 H     201  RF0201      0.0636
     38 H231      -48.1490  -29.4940    1.1160 H     201  RF0201      0.0583
     39 H232      -46.9210  -28.1270    0.8740 H     201  RF0201      0.0583
     40 H151      -47.9250  -29.2790    7.9460 H     201  RF0201      0.1673
     41 H241      -48.4410  -28.3470   -0.8590 H     201  RF0201      0.2095
@<TRIPOS>BOND
     1    32     8    1
     2    41    24    1
     3    24    16    1
     4    23     9    1
     5    23    15    1
     6     8    22    1
     7     8    31    1
     8     8    33    1
     9    22     9    1
    10    37    15    1
    11    34     9    1
    12    16    15    1
    13    16    39    1
    14    16    38    1
    15     9    10    1
    16    15     7    1
    17    10    36    1
    18    10    35    1
    19    10    18    1
    20     7    29    1
    21     7    30    1
    22     7    18    1
    23    26     3    1
    24    27     4    1
    25    18    11    1
    26     3     4   ar
    27     3    13   ar
    28     4     5   ar
    29    11    21   ar
    30    11    12   ar
    31    13    12   ar
    32    13    14   ar
    33    21     1   ar
    34     5    17    1
    35     5     6   ar
    36    12     2   ar
    37    14     6   ar
    38    14    19   ar
    39     6    28    1
    40     1    25    1
    41     1    20   ar
    42     2    19   ar
    43     2    20   ar
    44    19    40    1
