@<TRIPOS>MOLECULE
/home/pku/3cl/gett_pdb/7DPV/7DPV_mol2/ligand/7DPV_HF0.pdb
 24 26 0 0 0
SMALL
GASTEIGER

@<TRIPOS>ATOM
      1  C4       -24.3920   20.6610  -16.6470 C.ar  401  HF0401      0.0741
      2  C5       -24.9560   19.6420  -15.9060 C.ar  401  HF0401      0.1479
      3  C6       -25.5220   18.5150  -16.5070 C.ar  401  HF0401      0.1103
      4  C7       -25.1210   18.6050  -13.7580 C.3   401  HF0401      0.2260
      5  C8       -26.3130   17.7960  -14.2590 C.3   401  HF0401      0.2568
      6  C10      -25.2740   19.0130  -12.3210 C.ar  401  HF0401      0.0268
      7  C13      -25.5580   19.7750   -9.6500 C.ar  401  HF0401      0.2727
      8  C15      -25.8270   20.2460  -11.9930 C.ar  401  HF0401      0.0449
      9  C1       -25.4890   18.4460  -17.9230 C.ar  401  HF0401      0.2045
     10  C11      -24.8640   18.1650  -11.2980 C.ar  401  HF0401      0.0449
     11  C12      -25.0050   18.5430   -9.9750 C.ar  401  HF0401      0.2373
     12  C14      -25.9670   20.6230  -10.6700 C.ar  401  HF0401      0.2373
     13  C16      -23.6100   22.7980  -18.2600 C.3   401  HF0401      0.2525
     14  C2       -24.9160   19.4450  -18.6690 C.ar  401  HF0401      0.0792
     15  C3       -24.3780   20.5500  -18.0270 C.ar  401  HF0401      0.1450
     16  C9       -26.1290   17.4760  -15.7140 C.2   401  HF0401      0.2132
     17  O1       -24.9510   19.8060  -14.5450 O.3   401  HF0401     -0.4713
     18  O2       -26.4940   16.3970  -16.1900 O.2   401  HF0401     -0.2883
     19  O3       -26.0170   17.3810  -18.5780 O.3   401  HF0401     -0.2863
     20  O4       -23.8260   21.5110  -18.8280 O.3   401  HF0401     -0.4712
     21  O5       -26.4540   16.5900  -13.5120 O.3   401  HF0401     -0.2104
     22  O6       -26.5130   21.8390  -10.3440 O.3   401  HF0401     -0.2830
     23  O7       -25.6970   20.1470   -8.3440 O.3   401  HF0401     -0.2797
     24  O8       -24.6020   17.7090   -8.9630 O.3   401  HF0401     -0.2830
@<TRIPOS>BOND
     1    20    13    1
     2    20    15    1
     3    14    15   ar
     4    14     9   ar
     5    19     9    1
     6    15     1   ar
     7     9     3   ar
     8     1     2   ar
     9     3     2   ar
    10     3    16    1
    11    18    16    2
    12     2    17    1
    13    16     5    1
    14    17     4    1
    15     5     4    1
    16     5    21    1
    17     4     6    1
    18     6     8   ar
    19     6    10   ar
    20     8    12   ar
    21    10    11   ar
    22    12    22    1
    23    12     7   ar
    24    11     7   ar
    25    11    24    1
    26     7    23    1
