B0V
  -OEChem-02242320013D

 32 32  0     0  0  0  0  0  0999 V2000
   -0.6500   -0.3910   -0.8580 N   0  0  0  0  0  0  0  0  0  0  0  0
    1.4750   -1.2910   -0.1470 C   0  0  0  0  0  0  0  0  0  0  0  0
    0.6800   -0.1990   -0.4690 C   0  0  0  0  0  0  0  0  0  0  0  0
    1.2080    1.0840   -0.4040 C   0  0  0  0  0  0  0  0  0  0  0  0
    2.5220    1.2700   -0.0200 C   0  0  0  0  0  0  0  0  0  0  0  0
    0.3490    2.2720   -0.7520 C   0  0  0  0  0  0  0  0  0  0  0  0
   -3.0820   -0.3030   -0.4150 C   0  0  0  0  0  0  0  0  0  0  0  0
    4.7440    0.3860    0.7190 C   0  0  0  0  0  0  0  0  0  0  0  0
    3.3110    0.1800    0.3000 C   0  0  0  0  0  0  0  0  0  0  0  0
    2.7860   -1.0980    0.2410 C   0  0  0  0  0  0  0  0  0  0  0  0
   -1.6530   -0.0050   -0.0440 C   0  0  0  0  0  0  0  0  0  0  0  0
   -1.4040    0.5830    0.9880 O   0  0  0  0  0  0  0  0  0  0  0  0
   -3.9530    0.2020    0.5990 O   0  0  0  0  0  0  0  0  0  0  0  0
   -5.3400   -0.0300    0.3430 C   0  0  0  0  0  0  0  0  0  0  0  0
    0.9060   -2.6850   -0.2150 C   0  0  0  0  0  0  0  0  0  0  0  0
   -0.8510   -0.7980   -1.7150 H   0  0  0  0  0  0  0  0  0  0  0  0
    2.9340    2.2670    0.0270 H   0  0  0  0  0  0  0  0  0  0  0  0
   -0.0150    2.7380    0.1630 H   0  0  0  0  0  0  0  0  0  0  0  0
    0.9390    2.9930   -1.3180 H   0  0  0  0  0  0  0  0  0  0  0  0
   -0.4980    1.9430   -1.3540 H   0  0  0  0  0  0  0  0  0  0  0  0
   -3.3180    0.1730   -1.3670 H   0  0  0  0  0  0  0  0  0  0  0  0
   -3.2170   -1.3810   -0.5060 H   0  0  0  0  0  0  0  0  0  0  0  0
    4.7920    0.5090    1.8010 H   0  0  0  0  0  0  0  0  0  0  0  0
    5.3370   -0.4790    0.4240 H   0  0  0  0  0  0  0  0  0  0  0  0
    5.1390    1.2790    0.2340 H   0  0  0  0  0  0  0  0  0  0  0  0
    3.4050   -1.9470    0.4920 H   0  0  0  0  0  0  0  0  0  0  0  0
   -5.6220    0.4520   -0.5930 H   0  0  0  0  0  0  0  0  0  0  0  0
   -5.5210   -1.1020    0.2680 H   0  0  0  0  0  0  0  0  0  0  0  0
   -5.9340    0.3830    1.1580 H   0  0  0  0  0  0  0  0  0  0  0  0
    1.0660   -3.0940   -1.2130 H   0  0  0  0  0  0  0  0  0  0  0  0
    1.4030   -3.3170    0.5200 H   0  0  0  0  0  0  0  0  0  0  0  0
   -0.1620   -2.6520   -0.0030 H   0  0  0  0  0  0  0  0  0  0  0  0
  8  9  1  0  0  0  0
  5  9  2  0  0  0  0
  4  5  1  0  0  0  0
  4  6  1  0  0  0  0
  9 10  1  0  0  0  0
  3  4  2  0  0  0  0
  2 10  2  0  0  0  0
  2  3  1  0  0  0  0
  1  3  1  0  0  0  0
 11 12  2  0  0  0  0
  2 15  1  0  0  0  0
  1 11  1  0  0  0  0
  7 11  1  0  0  0  0
  7 13  1  0  0  0  0
 13 14  1  0  0  0  0
  1 16  1  0  0  0  0
  5 17  1  0  0  0  0
  6 18  1  0  0  0  0
  6 19  1  0  0  0  0
  6 20  1  0  0  0  0
  7 21  1  0  0  0  0
  7 22  1  0  0  0  0
  8 23  1  0  0  0  0
  8 24  1  0  0  0  0
  8 25  1  0  0  0  0
 10 26  1  0  0  0  0
 14 27  1  0  0  0  0
 14 28  1  0  0  0  0
 14 29  1  0  0  0  0
 15 30  1  0  0  0  0
 15 31  1  0  0  0  0
 15 32  1  0  0  0  0
M  END
> <OPENEYE_ISO_SMILES>
Cc1cc(c(c(c1)C)NC(=O)COC)C

> <OPENEYE_INCHI>
InChI=1S/C12H17NO2/c1-8-5-9(2)12(10(3)6-8)13-11(14)7-15-4/h5-6H,7H2,1-4H3,(H,13,14)

> <OPENEYE_INCHIKEY>
XZMRSYKEMFCZKR-UHFFFAOYSA-N

> <FORMULA>
C12H17NO2

$$$$
