GLC
  -OEChem-02242320023D

 24 24  0     1  0  0  0  0  0999 V2000
   -0.5670    1.5720   -0.2450 C   0  0  1  0  0  0  0  0  0  0  0  0
   -1.5780    0.4650   -0.5540 C   0  0  1  0  0  0  0  0  0  0  0  0
   -1.1790   -0.8060    0.2030 C   0  0  2  0  0  0  0  0  0  0  0  0
    0.2490   -1.1950   -0.1920 C   0  0  1  0  0  0  0  0  0  0  0  0
    1.1890   -0.0240    0.1020 C   0  0  1  0  0  0  0  0  0  0  0  0
    2.6070   -0.3830   -0.3450 C   0  0  0  0  0  0  0  0  0  0  0  0
   -0.6000    1.8710    1.1510 O   0  0  0  0  0  0  0  0  0  0  0  0
   -2.8810    0.8790   -0.1390 O   0  0  0  0  0  0  0  0  0  0  0  0
   -2.0750   -1.8660   -0.1370 O   0  0  0  0  0  0  0  0  0  0  0  0
    0.6580   -2.3380    0.5620 O   0  0  0  0  0  0  0  0  0  0  0  0
    0.7440    1.1330   -0.6080 O   0  0  0  0  0  0  0  0  0  0  0  0
    3.5060    0.6610    0.0350 O   0  0  0  0  0  0  0  0  0  0  0  0
   -0.8220    2.4660   -0.8150 H   0  0  0  0  0  0  0  0  0  0  0  0
   -1.5830    0.2640   -1.6260 H   0  0  0  0  0  0  0  0  0  0  0  0
   -1.2230   -0.6190    1.2760 H   0  0  0  0  0  0  0  0  0  0  0  0
    0.2810   -1.4290   -1.2570 H   0  0  0  0  0  0  0  0  0  0  0  0
    1.1870    0.1840    1.1730 H   0  0  0  0  0  0  0  0  0  0  0  0
    2.9130   -1.3150    0.1290 H   0  0  0  0  0  0  0  0  0  0  0  0
    2.6270   -0.5030   -1.4280 H   0  0  0  0  0  0  0  0  0  0  0  0
    0.0170    2.5660    1.4200 H   0  0  0  0  0  0  0  0  0  0  0  0
   -3.1970    1.6820   -0.5760 H   0  0  0  0  0  0  0  0  0  0  0  0
   -3.0000   -1.6840    0.0800 H   0  0  0  0  0  0  0  0  0  0  0  0
    0.1020   -3.1180    0.4270 H   0  0  0  0  0  0  0  0  0  0  0  0
    4.4250    0.5010   -0.2180 H   0  0  0  0  0  0  0  0  0  0  0  0
  1  2  1  0  0  0  0
  1  7  1  0  0  0  0
  1 11  1  0  0  0  0
  1 13  1  0  0  0  0
  2  3  1  0  0  0  0
  2  8  1  0  0  0  0
  2 14  1  0  0  0  0
  3  4  1  0  0  0  0
  3  9  1  0  0  0  0
  3 15  1  0  0  0  0
  4  5  1  0  0  0  0
  4 10  1  0  0  0  0
  4 16  1  0  0  0  0
  5  6  1  0  0  0  0
  5 11  1  0  0  0  0
  5 17  1  0  0  0  0
  6 12  1  0  0  0  0
  6 18  1  0  0  0  0
  6 19  1  0  0  0  0
  7 20  1  0  0  0  0
  8 21  1  0  0  0  0
  9 22  1  0  0  0  0
 10 23  1  0  0  0  0
 12 24  1  0  0  0  0
M  END
> <OPENEYE_ISO_SMILES>
C([C@@H]1[C@H]([C@@H]([C@H]([C@H](O1)O)O)O)O)O

> <OPENEYE_INCHI>
InChI=1S/C6H12O6/c7-1-2-3(8)4(9)5(10)6(11)12-2/h2-11H,1H2/t2-,3-,4+,5-,6+/m1/s1

> <OPENEYE_INCHIKEY>
WQZGKKKJIJFFOK-DVKNGEFBSA-N

> <FORMULA>
C6H12O6

$$$$
