M7G
  -OEChem-02242320033D

 48 50  0     1  0  0  0  0  0999 V2000
   -0.1690   -0.0230   -3.3650 P   0  0  1  0  0  0  0  0  0  0  0  0
    0.8250    0.9940   -2.9590 O   0  0  0  0  0  0  0  0  0  0  0  0
   -1.3160    0.6710   -4.2550 O   0  0  0  0  0  0  0  0  0  0  0  0
    0.5590   -1.1710   -4.2280 O   0  0  0  0  0  0  0  0  0  0  0  0
   -0.8310   -0.6790   -2.0520 O   0  0  0  0  0  0  0  0  0  0  0  0
    1.1950   -0.4490   -5.5180 P   0  0  0  0  0  0  0  0  0  0  0  0
    2.1690    0.5750   -5.0800 O   0  0  0  0  0  0  0  0  0  0  0  0
    1.9440   -1.5440   -6.4310 O   0  0  0  0  0  0  0  0  0  0  0  0
    0.0250    0.2530   -6.3730 O   0  0  0  0  0  0  0  0  0  0  0  0
   -1.4590    0.3830   -1.3310 C   0  0  0  0  0  0  0  0  0  0  0  0
   -2.1120   -0.1740   -0.0650 C   0  0  1  0  0  0  0  0  0  0  0  0
   -1.1140   -0.7640    0.7960 O   0  0  0  0  0  0  0  0  0  0  0  0
   -2.7300    0.9670    0.7710 C   0  0  1  0  0  0  0  0  0  0  0  0
   -4.1340    1.0660    0.5220 O   0  0  0  0  0  0  0  0  0  0  0  0
   -2.4660    0.5460    2.2360 C   0  0  1  0  0  0  0  0  0  0  0  0
   -3.7000    0.3740    2.9370 O   0  0  0  0  0  0  0  0  0  0  0  0
   -1.7170   -0.7980    2.1080 C   0  0  2  0  0  0  0  0  0  0  0  0
   -0.6840   -0.9060    3.1410 N   0  0  3  0  0  0  0  0  0  0  0  0
   -0.5840   -1.9610    4.1570 C   0  0  0  0  0  0  0  0  0  0  0  0
    0.6070   -1.6330    4.9510 N   0  0  3  0  0  0  0  0  0  0  0  0
    1.1330   -2.3870    6.0910 C   0  0  0  0  0  0  0  0  0  0  0  0
    1.1430   -0.4460    4.4070 C   0  0  0  0  0  0  0  0  0  0  0  0
    2.2680    0.3100    4.7660 C   0  0  0  0  0  0  0  0  0  0  0  0
    2.9700   -0.0280    5.7070 O   0  0  0  0  0  0  0  0  0  0  0  0
    2.5620    1.4180    4.0550 N   0  0  0  0  0  0  0  0  0  0  0  0
    1.7720    1.7840    3.0080 C   0  0  0  0  0  0  0  0  0  0  0  0
    2.0860    2.9130    2.2950 N   0  0  0  0  0  0  0  0  0  0  0  0
    0.7140    1.0830    2.6680 N   0  0  0  0  0  0  0  0  0  0  0  0
    0.3720   -0.0310    3.3330 C   0  0  0  0  0  0  0  0  0  0  0  0
   -1.9420   -0.0250   -4.4980 H   0  0  0  0  0  0  0  0  0  0  0  0
    2.3100   -1.0710   -7.1910 H   0  0  0  0  0  0  0  0  0  0  0  0
   -0.5850   -0.4470   -6.6380 H   0  0  0  0  0  0  0  0  0  0  0  0
   -2.2200    0.8480   -1.9580 H   0  0  0  0  0  0  0  0  0  0  0  0
   -0.7100    1.1270   -1.0570 H   0  0  0  0  0  0  0  0  0  0  0  0
   -2.8730   -0.9090   -0.3240 H   0  0  0  0  0  0  0  0  0  0  0  0
   -2.2360    1.9140    0.5500 H   0  0  0  0  0  0  0  0  0  0  0  0
   -4.4640    1.7920    1.0690 H   0  0  0  0  0  0  0  0  0  0  0  0
   -1.8410    1.2840    2.7390 H   0  0  0  0  0  0  0  0  0  0  0  0
   -4.1470    1.2320    2.9300 H   0  0  0  0  0  0  0  0  0  0  0  0
   -2.4160   -1.6310    2.1830 H   0  0  0  0  0  0  0  0  0  0  0  0
   -0.4620   -2.9330    3.6790 H   0  0  0  0  0  0  0  0  0  0  0  0
   -1.4710   -1.9600    4.7900 H   0  0  0  0  0  0  0  0  0  0  0  0
    2.0270   -1.8950    6.4720 H   0  0  0  0  0  0  0  0  0  0  0  0
    0.3790   -2.4290    6.8780 H   0  0  0  0  0  0  0  0  0  0  0  0
    1.3830   -3.3990    5.7730 H   0  0  0  0  0  0  0  0  0  0  0  0
    3.3360    1.9540    4.2890 H   0  0  0  0  0  0  0  0  0  0  0  0
    1.5310    3.1850    1.5480 H   0  0  0  0  0  0  0  0  0  0  0  0
    2.8620    3.4410    2.5390 H   0  0  0  0  0  0  0  0  0  0  0  0
  1  2  2  0  0  0  0
  1  3  1  0  0  0  0
  1  4  1  0  0  0  0
  1  5  1  0  0  0  0
  3 30  1  0  0  0  0
  4  6  1  0  0  0  0
  5 10  1  0  0  0  0
  6  7  2  0  0  0  0
  6  8  1  0  0  0  0
  6  9  1  0  0  0  0
  8 31  1  0  0  0  0
  9 32  1  0  0  0  0
 10 11  1  0  0  0  0
 10 33  1  0  0  0  0
 10 34  1  0  0  0  0
 11 12  1  0  0  0  0
 11 13  1  0  0  0  0
 11 35  1  0  0  0  0
 12 17  1  0  0  0  0
 13 14  1  0  0  0  0
 13 15  1  0  0  0  0
 13 36  1  0  0  0  0
 14 37  1  0  0  0  0
 15 16  1  0  0  0  0
 15 17  1  0  0  0  0
 15 38  1  0  0  0  0
 16 39  1  0  0  0  0
 17 18  1  0  0  0  0
 17 40  1  0  0  0  0
 18 19  1  0  0  0  0
 18 29  1  0  0  0  0
 19 20  1  0  0  0  0
 19 41  1  0  0  0  0
 19 42  1  0  0  0  0
 20 21  1  0  0  0  0
 20 22  1  0  0  0  0
 21 43  1  0  0  0  0
 21 44  1  0  0  0  0
 21 45  1  0  0  0  0
 22 23  1  0  0  0  0
 22 29  2  0  0  0  0
 23 24  2  0  0  0  0
 23 25  1  0  0  0  0
 25 26  1  0  0  0  0
 25 46  1  0  0  0  0
 26 27  1  0  0  0  0
 26 28  2  0  0  0  0
 27 47  1  0  0  0  0
 27 48  1  0  0  0  0
 28 29  1  0  0  0  0
M  END
> <OPENEYE_ISO_SMILES>
CN1CN(c2c1c(=O)[nH]c(n2)N)[C@H]3[C@@H]([C@@H]([C@H](O3)CO[P@](=O)(O)OP(=O)(O)O)O)O

> <OPENEYE_INCHI>
InChI=1S/C11H19N5O11P2/c1-15-3-16(8-5(15)9(19)14-11(12)13-8)10-7(18)6(17)4(26-10)2-25-29(23,24)27-28(20,21)22/h4,6-7,10,17-18H,2-3H2,1H3,(H,23,24)(H2,20,21,22)(H3,12,13,14,19)/t4-,6-,7-,10-/m1/s1

> <OPENEYE_INCHIKEY>
QQODJOAVWUWVHJ-KQYNXXCUSA-N

> <FORMULA>
C11H19N5O11P2

$$$$
