KNL
  -OEChem-02242320033D

 19 19  0     0  0  0  0  0  0999 V2000
   -0.4830   -2.7060    0.2080 Cl  0  0  0  0  0  0  0  0  0  0  0  0
    4.0250   -0.0000   -1.0070 O   0  0  0  0  0  0  0  0  0  0  0  0
    0.6790   -0.0000    0.4590 O   0  0  0  0  0  0  0  0  0  0  0  0
   -0.4830    2.7060    0.2080 Cl  0  0  0  0  0  0  0  0  0  0  0  0
    3.2160   -0.0000    1.0500 O   0  0  0  0  0  0  0  0  0  0  0  0
    3.0010   -0.0000   -0.1390 C   0  0  0  0  0  0  0  0  0  0  0  0
    1.5820    0.0000   -0.6480 C   0  0  0  0  0  0  0  0  0  0  0  0
   -3.3550    0.0000   -0.4120 C   0  0  0  0  0  0  0  0  0  0  0  0
   -2.6810   -1.1980   -0.2670 C   0  0  0  0  0  0  0  0  0  0  0  0
   -1.3290   -1.2010    0.0240 C   0  0  0  0  0  0  0  0  0  0  0  0
   -0.6500    0.0000    0.1710 C   0  0  0  0  0  0  0  0  0  0  0  0
   -1.3290    1.2010    0.0250 C   0  0  0  0  0  0  0  0  0  0  0  0
   -2.6810    1.1980   -0.2670 C   0  0  0  0  0  0  0  0  0  0  0  0
    4.9170   -0.0000   -0.6330 H   0  0  0  0  0  0  0  0  0  0  0  0
    1.4140   -0.8900   -1.2550 H   0  0  0  0  0  0  0  0  0  0  0  0
    1.4140    0.8900   -1.2550 H   0  0  0  0  0  0  0  0  0  0  0  0
   -4.4100    0.0000   -0.6440 H   0  0  0  0  0  0  0  0  0  0  0  0
   -3.2100   -2.1320   -0.3810 H   0  0  0  0  0  0  0  0  0  0  0  0
   -3.2100    2.1330   -0.3810 H   0  0  0  0  0  0  0  0  0  0  0  0
  1 10  1  0  0  0  0
  2  6  1  0  0  0  0
  2 14  1  0  0  0  0
  3  7  1  0  0  0  0
  3 11  1  0  0  0  0
  4 12  1  0  0  0  0
  5  6  2  0  0  0  0
  6  7  1  0  0  0  0
  7 15  1  0  0  0  0
  7 16  1  0  0  0  0
  8  9  2  0  0  0  0
  8 13  1  0  0  0  0
  8 17  1  0  0  0  0
  9 10  1  0  0  0  0
  9 18  1  0  0  0  0
 10 11  2  0  0  0  0
 11 12  1  0  0  0  0
 12 13  2  0  0  0  0
 13 19  1  0  0  0  0
M  END
> <OPENEYE_ISO_SMILES>
c1cc(c(c(c1)Cl)OCC(=O)O)Cl

> <OPENEYE_INCHI>
InChI=1S/C8H6Cl2O3/c9-5-2-1-3-6(10)8(5)13-4-7(11)12/h1-3H,4H2,(H,11,12)

> <OPENEYE_INCHIKEY>
KHZWIIFEFQBNKL-UHFFFAOYSA-N

> <FORMULA>
C8H6Cl2O3

$$$$
