# Name: UHV
# Created by ModelServer 0.9.9

# model_server_result.job_id: eoa1c8Cl3DAY3wPk-SDymw
# model_server_result.datetime_utc: 2023-03-14 17:28:57
# model_server_result.server_version: 0.9.9
# model_server_result.query_name: ligand
# model_server_result.source_id: pdb-bcif
# model_server_result.entry_id: 5rh5

# model_server_params.name: atom_site
# model_server_params.value: {"label_asym_id":"B","auth_seq_id":1001}

# model_server_stats.io_time_ms: 69
# model_server_stats.parse_time_ms: 147
# model_server_stats.create_model_time_ms: 9
# model_server_stats.query_time_ms: 201
# model_server_stats.encode_time_ms: 0
# model_server_stats.element_count: 33

@<TRIPOS>MOLECULE
UHV
33 35 1
****
****

@<TRIPOS>ATOM
1 N1 7.943 2.367 22.587 N.am 1 UHV 0.000
2 N3 8.818 -1.308 23.871 N.ar 1 UHV 0.000
3 C4 8.299 1.424 21.683 C.2 1 UHV 0.000
4 C5 8.731 3.459 23.021 C.ar 1 UHV 0.000
5 C6 9.795 3.216 23.911 C.ar 1 UHV 0.000
6 C7 10.055 1.849 24.493 C.3 1 UHV 0.000
7 C8 10.574 4.293 24.317 C.ar 1 UHV 0.000
8 C10 12.073 6.572 25.169 C.3 1 UHV 0.000
9 C13 6.558 0.502 20.093 C.ar 1 UHV 0.000
10 C15 5.522 1.111 17.640 C.ar 1 UHV 0.000
11 C17 5.350 1.178 20.004 C.ar 1 UHV 0.000
12 C20 10.266 -1.282 22.099 C.ar 1 UHV 0.000
13 C21 12.483 -1.425 23.420 C.3 1 UHV 0.000
14 C22 12.990 -0.067 23.903 C.3 1 UHV 0.000
15 C24 12.850 -2.474 24.470 C.3 1 UHV 0.000
16 O1 9.355 1.432 21.057 O.2 1 UHV 0.000
17 C3 7.252 0.326 21.433 C.3 1 UHV 0.000
18 C16 4.821 1.497 18.768 C.ar 1 UHV 0.000
19 N2 6.679 0.442 17.686 N.ar 1 UHV 0.000
20 C14 7.168 0.148 18.897 C.ar 1 UHV 0.000
21 N 7.730 -1.052 21.716 N.am 1 UHV 0.000
22 C18 8.906 -1.231 22.520 C.ar 1 UHV 0.000
23 C19 10.979 -1.374 23.229 C.ar 1 UHV 0.000
24 C23 13.159 -1.777 22.094 C.3 1 UHV 0.000
25 O3 10.169 -1.398 24.307 O.3 1 UHV 0.000
26 C2 7.000 -2.179 21.314 C.2 1 UHV 0.000
27 O 5.789 -2.084 21.188 O.2 1 UHV 0.000
28 C1 7.727 -3.480 21.091 C.3 1 UHV 0.000
29 C 7.054 -4.356 20.041 C.3 1 UHV 0.000
30 C12 8.455 4.752 22.578 C.ar 1 UHV 0.000
31 C11 9.239 5.809 23.007 C.ar 1 UHV 0.000
32 C9 10.291 5.578 23.878 C.ar 1 UHV 0.000
33 O2 10.982 6.701 24.251 O.3 1 UHV 0.000
@<TRIPOS>BOND
1 1 3 1
2 1 4 1
3 2 22 ar
4 2 25 ar
5 3 16 2
6 3 17 1
7 4 30 ar
8 4 5 ar
9 5 7 ar
10 5 6 1
11 7 32 ar
12 8 33 1
13 9 20 ar
14 9 11 ar
15 9 17 1
16 10 19 ar
17 10 18 ar
18 11 18 ar
19 12 22 ar
20 12 23 ar
21 13 24 1
22 13 23 1
23 13 14 1
24 13 15 1
25 17 21 1
26 19 20 ar
27 21 26 1
28 21 22 1
29 23 25 ar
30 26 28 1
31 26 27 2
32 28 29 1
33 30 31 ar
34 31 32 ar
35 32 33 1
@<TRIPOS>SUBSTRUCTURE
1 UHV 1
