@<TRIPOS>MOLECULE
/home/pku/3cl/gett_pdb/5RH5/5RH5_mol2/ligand/5RH5_UHV.pdb
 33 35 0 0 0
SMALL
GASTEIGER

@<TRIPOS>ATOM
      1  N1         7.9430    2.3670   22.5870 N.am  1001  UHV1001    -0.1778
      2  N3         8.8180   -1.3080   23.8710 N.ar  1001  UHV1001    -0.0618
      3  C4         8.2990    1.4240   21.6830 C.2   1001  UHV1001     0.2684
      4  C5         8.7310    3.4590   23.0210 C.ar  1001  UHV1001     0.0696
      5  C6         9.7950    3.2160   23.9110 C.ar  1001  UHV1001    -0.0035
      6  C7        10.0550    1.8490   24.4930 C.3   1001  UHV1001     0.0325
      7  C8        10.5740    4.2930   24.3170 C.ar  1001  UHV1001     0.0339
      8  C10       12.0730    6.5720   25.1690 C.3   1001  UHV1001     0.2525
      9  C13        6.5580    0.5020   20.0930 C.ar  1001  UHV1001     0.0241
     10  C15        5.5220    1.1110   17.6400 C.ar  1001  UHV1001     0.0989
     11  C17        5.3500    1.1780   20.0040 C.ar  1001  UHV1001     0.0010
     12  C20       10.2660   -1.2820   22.0990 C.ar  1001  UHV1001     0.0736
     13  C21       12.4830   -1.4250   23.4200 C.3   1001  UHV1001     0.0539
     14  C22       12.9900   -0.0670   23.9030 C.3   1001  UHV1001     0.0076
     15  C24       12.8500   -2.4740   24.4700 C.3   1001  UHV1001     0.0076
     16  O1         9.3550    1.4320   21.0570 O.2   1001  UHV1001    -0.2708
     17  C3         7.2520    0.3260   21.4330 C.3   1001  UHV1001     0.1833
     18  C16        4.8210    1.4970   18.7680 C.ar  1001  UHV1001     0.0204
     19  N2         6.6790    0.4420   17.6860 N.ar  1001  UHV1001    -0.2426
     20  C14        7.1680    0.1480   18.8970 C.ar  1001  UHV1001     0.0967
     21  N          7.7300   -1.0520   21.7160 N.am  1001  UHV1001    -0.2302
     22  C18        8.9060   -1.2310   22.5200 C.ar  1001  UHV1001     0.1798
     23  C19       10.9790   -1.3740   23.2290 C.ar  1001  UHV1001     0.1549
     24  C23       13.1590   -1.7770   22.0940 C.3   1001  UHV1001     0.0076
     25  O3        10.1690   -1.3980   24.3070 O.2   1001  UHV1001    -0.3565
     26  C2         7.0000   -2.1790   21.3140 C.2   1001  UHV1001     0.2310
     27  O          5.7890   -2.0840   21.1880 O.2   1001  UHV1001    -0.2745
     28  C1         7.7270   -3.4800   21.0910 C.3   1001  UHV1001     0.0857
     29  C          7.0540   -4.3560   20.0410 C.3   1001  UHV1001     0.0101
     30  C12        8.4550    4.7520   22.5780 C.ar  1001  UHV1001     0.0194
     31  C11        9.2390    5.8090   23.0070 C.ar  1001  UHV1001     0.0382
     32  C9        10.2910    5.5780   23.8780 C.ar  1001  UHV1001     0.1385
     33  O2        10.9820    6.7010   24.2510 O.3   1001  UHV1001    -0.4714
@<TRIPOS>BOND
     1    10    19   ar
     2    10    18   ar
     3    19    20   ar
     4    18    11   ar
     5    20     9   ar
     6    11     9   ar
     7    29    28    1
     8     9    17    1
     9    16     3    2
    10    28    26    1
    11    27    26    2
    12    26    21   am
    13    17     3    1
    14    17    21    1
    15     3     1   am
    16    21    22    1
    17    24    13    1
    18    12    22   ar
    19    12    23   ar
    20    22     2   ar
    21    30    31   ar
    22    30     4   ar
    23     1     4    1
    24    31    32   ar
    25     4     5   ar
    26    23    13    1
    27    23    25   ar
    28    13    14    1
    29    13    15    1
    30     2    25   ar
    31    32    33    1
    32    32     7   ar
    33     5     7   ar
    34     5     6    1
    35    33     8    1
