@<TRIPOS>MOLECULE
/home/pku/3cl/gett_pdb/7JT7/7JT7_mol2/ligand/7JT7_TG3.pdb
 45 46 0 0 0
SMALL
GASTEIGER

@<TRIPOS>ATOM
      1  C01       12.8120    2.9650   22.9530 C.3   401  TG3401      0.0513
      2  C02       12.1050    3.0330   21.6000 C.3   401  TG3401      0.2086
      3  O03       10.8340    3.6310   21.7470 O.3   401  TG3401     -0.4485
      4  C04       10.1070    3.7130   20.5280 C.2   401  TG3401      0.3170
      5  O05       10.6440    3.4160   19.5120 O.2   401  TG3401     -0.2501
      6  C06        8.6240    4.1750   20.5360 C.3   401  TG3401      0.1113
      7  C07        7.7050    3.2150   19.7350 C.3   401  TG3401      0.0333
      8  C08        7.9230    1.7250   19.9940 C.3   401  TG3401      0.0964
      9  C09        7.4490    0.9250   18.7800 C.3   401  TG3401      0.0309
     10  C10        8.0130   -0.5360   18.8390 C.3   401  TG3401      0.0817
     11  C11        9.5210   -0.5310   18.9040 C.3   401  TG3401      0.0326
     12  C12        9.8990   -1.7280   17.9450 C.3   401  TG3401      0.1156
     13  N13        8.6260   -1.9140   17.0910 N.am  401  TG3401     -0.2054
     14  C14        7.5910   -1.2440   17.6080 C.2   401  TG3401      0.2410
     15  O15        6.4940   -1.2050   17.1570 O.2   401  TG3401     -0.2734
     16  N16        7.1820    1.3080   21.1940 N.am  401  TG3401     -0.2057
     17  C17        7.8680    0.9430   22.2700 C.2   401  TG3401      0.2612
     18  O18        9.0600    0.9260   22.2590 O.2   401  TG3401     -0.2715
     19  C19        7.0800    0.5080   23.5220 C.3   401  TG3401      0.1728
     20  C20        7.2040    1.5410   24.6250 C.3   401  TG3401      0.0311
     21  C21        6.3730    1.0670   25.8460 C.3   401  TG3401      0.0022
     22  C22        4.8830    1.0300   25.5130 C.3   401  TG3401      0.0001
     23  C23        6.6130    2.0070   27.0170 C.3   401  TG3401      0.0001
     24  N24        7.6010   -0.7760   23.9840 N.am  401  TG3401     -0.1963
     25  C25        7.5080   -1.8600   23.2230 C.2   401  TG3401      0.2642
     26  O26        7.0040   -1.8270   22.1410 O.2   401  TG3401     -0.2714
     27  C27        8.0740   -3.2100   23.7800 C.3   401  TG3401      0.2029
     28  N28        6.9190   -4.0890   23.9930 N.am  401  TG3401     -0.1585
     29  C29        6.6660   -4.3530   25.2670 C.2   401  TG3401      0.4219
     30  O30        7.3900   -4.0100   26.1440 O.2   401  TG3401     -0.2245
     31  O31        5.5630   -5.0340   25.5170 O.3   401  TG3401     -0.4285
     32  C32        5.3930   -5.3730   26.8750 C.3   401  TG3401      0.2368
     33  C33        6.1540   -6.6770   27.2150 C.ar  401  TG3401      0.0213
     34  C34        5.7580   -7.8830   26.6510 C.ar  401  TG3401     -0.0007
     35  C35        6.4380   -9.0540   26.9680 C.ar  401  TG3401     -0.0002
     36  C36        7.5130   -9.0200   27.8520 C.ar  401  TG3401     -0.0000
     37  C37        7.9060   -7.8100   28.4150 C.ar  401  TG3401     -0.0002
     38  C38        7.2250   -6.6390   28.0960 C.ar  401  TG3401     -0.0007
     39  C39        9.0290   -3.8800   22.7670 C.3   401  TG3401      0.1439
     40  C40       10.0620   -2.8550   22.3430 C.3   401  TG3401      0.0344
     41  O41        9.6430   -4.9880   23.3840 O.3   401  TG3401     -0.3587
     42  C42        9.6130   -6.2620   22.7160 C.3   401  TG3401      0.0930
     43  C43       10.6240   -7.1800   23.4110 C.3   401  TG3401      0.0296
     44  C44        9.9720   -6.1380   21.2320 C.3   401  TG3401      0.0296
     45  C45        8.2450   -6.9280   22.8320 C.3   401  TG3401      0.0296
@<TRIPOS>BOND
     1    13    14   am
     2    13    12    1
     3    15    14    2
     4    14    10    1
     5    12    11    1
     6     9    10    1
     7     9     8    1
     8    10    11    1
     9     5     4    2
    10     7     8    1
    11     7     6    1
    12     8    16    1
    13     4     6    1
    14     4     3    1
    15    16    17   am
    16    44    42    1
    17     2     3    1
    18     2     1    1
    19    26    25    2
    20    18    17    2
    21    17    19    1
    22    40    39    1
    23    42    45    1
    24    42    41    1
    25    42    43    1
    26    39    41    1
    27    39    27    1
    28    25    27    1
    29    25    24   am
    30    19    24    1
    31    19    20    1
    32    27    28    1
    33    28    29   am
    34    20    21    1
    35    29    31    1
    36    29    30    2
    37    22    21    1
    38    31    32    1
    39    21    23    1
    40    34    35   ar
    41    34    33   ar
    42    32    33    1
    43    35    36   ar
    44    33    38   ar
    45    36    37   ar
    46    38    37   ar
