N40
  -OEChem-02242320033D

 78 79  0     1  0  0  0  0  0999 V2000
   -1.1040   -1.6670   -0.7790 C   0  0  0  0  0  0  0  0  0  0  0  0
   -2.3660   -2.3720   -0.2760 C   0  0  0  0  0  0  0  0  0  0  0  0
   -3.5670   -1.4370   -0.4310 C   0  0  0  0  0  0  0  0  0  0  0  0
   -4.8290   -2.1420    0.0710 C   0  0  0  0  0  0  0  0  0  0  0  0
   -6.0310   -1.2070   -0.0840 C   0  0  0  0  0  0  0  0  0  0  0  0
   -7.2930   -1.9110    0.4180 C   0  0  0  0  0  0  0  0  0  0  0  0
   -8.4940   -0.9770    0.2630 C   0  0  0  0  0  0  0  0  0  0  0  0
   -9.7560   -1.6810    0.7650 C   0  0  0  0  0  0  0  0  0  0  0  0
    2.0060   -0.6630   -0.4930 C   0  0  1  0  0  0  0  0  0  0  0  0
    3.5320   -0.5430   -0.5160 C   0  0  0  0  0  0  0  0  0  0  0  0
    4.1460   -1.6930    0.2840 C   0  0  0  0  0  0  0  0  0  0  0  0
    3.7560   -1.5540    1.7570 C   0  0  0  0  0  0  0  0  0  0  0  0
    4.3710   -2.7040    2.5580 C   0  0  0  0  0  0  0  0  0  0  0  0
    5.8940   -2.6600    2.4270 C   0  0  0  0  0  0  0  0  0  0  0  0
    6.2840   -2.7990    0.9540 C   0  0  0  0  0  0  0  0  0  0  0  0
    5.6690   -1.6490    0.1530 C   0  0  0  0  0  0  0  0  0  0  0  0
    1.3990    0.5190   -1.2030 C   0  0  0  0  0  0  0  0  0  0  0  0
    1.0430    2.9180   -1.4450 C   0  0  1  0  0  0  0  0  0  0  0  0
    0.8350    4.0600   -0.4490 C   0  0  0  0  0  0  0  0  0  0  0  0
   -0.1790    3.6310    0.6140 C   0  0  1  0  0  0  0  0  0  0  0  0
   -0.3920    4.7390    1.6210 C   0  0  0  0  0  0  0  0  0  0  0  0
   -2.5080    3.9420    1.0930 C   0  0  0  0  0  0  0  0  0  0  0  0
   -1.5740    3.4240   -0.0220 C   0  0  0  0  0  0  0  0  0  0  0  0
    1.9820    3.3800   -2.5620 C   0  0  0  0  0  0  0  0  0  0  0  0
    1.6030   -1.8980   -1.1690 N   0  0  0  0  0  0  0  0  0  0  0  0
    1.6340    1.7690   -0.7550 N   0  0  0  0  0  0  0  0  0  0  0  0
   -1.7040    4.8950    1.8670 N   0  0  0  0  0  0  0  0  0  0  0  0
    0.6210   -2.9780    0.7790 O   0  0  0  0  0  0  0  0  0  0  0  0
    0.4930    5.3920    2.1330 O   0  0  0  0  0  0  0  0  0  0  0  0
    3.1980    3.8660   -1.9900 O   0  0  0  0  0  0  0  0  0  0  0  0
    0.6980    0.3470   -2.1780 O   0  0  0  0  0  0  0  0  0  0  0  0
    0.2180   -3.8730   -1.4910 O   0  0  0  0  0  0  0  0  0  0  0  0
    0.3210   -2.7750   -0.5950 S   0  0  0  0  0  0  0  0  0  0  0  0
   -1.2270   -1.4060   -1.8290 H   0  0  0  0  0  0  0  0  0  0  0  0
   -0.9370   -0.7620   -0.1960 H   0  0  0  0  0  0  0  0  0  0  0  0
   -2.5330   -3.2780   -0.8590 H   0  0  0  0  0  0  0  0  0  0  0  0
   -2.2420   -2.6330    0.7750 H   0  0  0  0  0  0  0  0  0  0  0  0
   -3.4000   -0.5310    0.1510 H   0  0  0  0  0  0  0  0  0  0  0  0
   -3.6910   -1.1760   -1.4820 H   0  0  0  0  0  0  0  0  0  0  0  0
   -4.9960   -3.0470   -0.5120 H   0  0  0  0  0  0  0  0  0  0  0  0
   -4.7060   -2.4030    1.1220 H   0  0  0  0  0  0  0  0  0  0  0  0
   -5.8640   -0.3010    0.4990 H   0  0  0  0  0  0  0  0  0  0  0  0
   -6.1540   -0.9460   -1.1350 H   0  0  0  0  0  0  0  0  0  0  0  0
   -7.4590   -2.8170   -0.1650 H   0  0  0  0  0  0  0  0  0  0  0  0
   -7.1690   -2.1730    1.4690 H   0  0  0  0  0  0  0  0  0  0  0  0
   -8.3280   -0.0710    0.8460 H   0  0  0  0  0  0  0  0  0  0  0  0
   -8.6180   -0.7150   -0.7880 H   0  0  0  0  0  0  0  0  0  0  0  0
  -10.6120   -1.0150    0.6550 H   0  0  0  0  0  0  0  0  0  0  0  0
   -9.9230   -2.5870    0.1820 H   0  0  0  0  0  0  0  0  0  0  0  0
   -9.6330   -1.9430    1.8160 H   0  0  0  0  0  0  0  0  0  0  0  0
    1.6590   -0.6840    0.5400 H   0  0  0  0  0  0  0  0  0  0  0  0
    3.8840   -0.5890   -1.5470 H   0  0  0  0  0  0  0  0  0  0  0  0
    3.8280    0.4080   -0.0730 H   0  0  0  0  0  0  0  0  0  0  0  0
    3.7750   -2.6430   -0.1010 H   0  0  0  0  0  0  0  0  0  0  0  0
    4.1270   -0.6040    2.1430 H   0  0  0  0  0  0  0  0  0  0  0  0
    2.6710   -1.5850    1.8510 H   0  0  0  0  0  0  0  0  0  0  0  0
    4.0930   -2.6050    3.6070 H   0  0  0  0  0  0  0  0  0  0  0  0
    4.0000   -3.6540    2.1720 H   0  0  0  0  0  0  0  0  0  0  0  0
    6.2650   -1.7100    2.8130 H   0  0  0  0  0  0  0  0  0  0  0  0
    6.3320   -3.4790    2.9970 H   0  0  0  0  0  0  0  0  0  0  0  0
    7.3690   -2.7670    0.8600 H   0  0  0  0  0  0  0  0  0  0  0  0
    5.9130   -3.7490    0.5680 H   0  0  0  0  0  0  0  0  0  0  0  0
    5.9470   -1.7480   -0.8960 H   0  0  0  0  0  0  0  0  0  0  0  0
    6.0400   -0.6990    0.5390 H   0  0  0  0  0  0  0  0  0  0  0  0
    0.0830    2.6300   -1.8740 H   0  0  0  0  0  0  0  0  0  0  0  0
    1.7830    4.3010    0.0310 H   0  0  0  0  0  0  0  0  0  0  0  0
    0.4610    4.9380   -0.9750 H   0  0  0  0  0  0  0  0  0  0  0  0
    0.1520    2.7190    1.1110 H   0  0  0  0  0  0  0  0  0  0  0  0
   -3.3730    4.4440    0.6580 H   0  0  0  0  0  0  0  0  0  0  0  0
   -2.8320    3.1170    1.7280 H   0  0  0  0  0  0  0  0  0  0  0  0
   -1.6810    4.0190   -0.9290 H   0  0  0  0  0  0  0  0  0  0  0  0
   -1.7570    2.3690   -0.2260 H   0  0  0  0  0  0  0  0  0  0  0  0
    2.2010    2.5420   -3.2230 H   0  0  0  0  0  0  0  0  0  0  0  0
    1.5040    4.1770   -3.1320 H   0  0  0  0  0  0  0  0  0  0  0  0
    2.0870   -2.2030   -1.9520 H   0  0  0  0  0  0  0  0  0  0  0  0
    2.1950    1.9070    0.0240 H   0  0  0  0  0  0  0  0  0  0  0  0
   -2.0720    5.5540    2.4770 H   0  0  0  0  0  0  0  0  0  0  0  0
    3.8420    4.1770   -2.6410 H   0  0  0  0  0  0  0  0  0  0  0  0
 21 29  2  0  0  0  0
 21 27  1  0  0  0  0
 22 27  1  0  0  0  0
 20 21  1  0  0  0  0
 22 23  1  0  0  0  0
 19 20  1  0  0  0  0
 20 23  1  0  0  0  0
 18 19  1  0  0  0  0
 18 24  1  0  0  0  0
 18 26  1  0  0  0  0
  7  8  1  0  0  0  0
  6  7  1  0  0  0  0
 24 30  1  0  0  0  0
  5  6  1  0  0  0  0
  4  5  1  0  0  0  0
 28 33  2  0  0  0  0
 17 26  1  0  0  0  0
  3  4  1  0  0  0  0
 32 33  2  0  0  0  0
  2  3  1  0  0  0  0
  1  2  1  0  0  0  0
 17 31  2  0  0  0  0
  9 17  1  0  0  0  0
  1 33  1  0  0  0  0
 25 33  1  0  0  0  0
  9 25  1  0  0  0  0
  9 10  1  0  0  0  0
 10 11  1  0  0  0  0
 11 12  1  0  0  0  0
 12 13  1  0  0  0  0
 11 16  1  0  0  0  0
 13 14  1  0  0  0  0
 15 16  1  0  0  0  0
 14 15  1  0  0  0  0
  1 34  1  0  0  0  0
  1 35  1  0  0  0  0
  2 36  1  0  0  0  0
  2 37  1  0  0  0  0
  3 38  1  0  0  0  0
  3 39  1  0  0  0  0
  4 40  1  0  0  0  0
  4 41  1  0  0  0  0
  5 42  1  0  0  0  0
  5 43  1  0  0  0  0
  6 44  1  0  0  0  0
  6 45  1  0  0  0  0
  7 46  1  0  0  0  0
  7 47  1  0  0  0  0
  8 48  1  0  0  0  0
  8 49  1  0  0  0  0
  8 50  1  0  0  0  0
  9 51  1  0  0  0  0
 10 52  1  0  0  0  0
 10 53  1  0  0  0  0
 11 54  1  0  0  0  0
 12 55  1  0  0  0  0
 12 56  1  0  0  0  0
 13 57  1  0  0  0  0
 13 58  1  0  0  0  0
 14 59  1  0  0  0  0
 14 60  1  0  0  0  0
 15 61  1  0  0  0  0
 15 62  1  0  0  0  0
 16 63  1  0  0  0  0
 16 64  1  0  0  0  0
 18 65  1  0  0  0  0
 19 66  1  0  0  0  0
 19 67  1  0  0  0  0
 20 68  1  0  0  0  0
 22 69  1  0  0  0  0
 22 70  1  0  0  0  0
 23 71  1  0  0  0  0
 23 72  1  0  0  0  0
 24 73  1  0  0  0  0
 24 74  1  0  0  0  0
 25 75  1  0  0  0  0
 26 76  1  0  0  0  0
 27 77  1  0  0  0  0
 30 78  1  0  0  0  0
M  END
> <OPENEYE_ISO_SMILES>
CCCCCCCCS(=O)(=O)N[C@@H](CC1CCCCC1)C(=O)N[C@@H](C[C@@H]2CCNC2=O)CO

> <OPENEYE_INCHI>
InChI=1S/C24H45N3O5S/c1-2-3-4-5-6-10-15-33(31,32)27-22(16-19-11-8-7-9-12-19)24(30)26-21(18-28)17-20-13-14-25-23(20)29/h19-22,27-28H,2-18H2,1H3,(H,25,29)(H,26,30)/t20-,21-,22-/m0/s1

> <OPENEYE_INCHIKEY>
RZTXHLLGLPTYGI-FKBYEOEOSA-N

> <FORMULA>
C24H45N3O5S

$$$$
