I8H
  -OEChem-02242320023D

 88 90  0     1  0  0  0  0  0999 V2000
   -0.3960   -0.5720    0.4930 N   0  0  0  0  0  0  0  0  0  0  0  0
    3.2100    0.1870    0.2460 N   0  0  0  0  0  0  0  0  0  0  0  0
    0.9470   -0.3650    1.0810 C   0  0  2  0  0  0  0  0  0  0  0  0
   -1.3440    0.3550    0.2490 C   0  0  0  0  0  0  0  0  0  0  0  0
    1.9970   -0.3490    0.0000 C   0  0  0  0  0  0  0  0  0  0  0  0
   -2.6260   -0.0410   -0.4380 C   0  0  2  0  0  0  0  0  0  0  0  0
   -2.4350    0.0280   -1.9540 C   0  0  0  0  0  0  0  0  0  0  0  0
   -2.0250    1.4470   -2.3520 C   0  0  0  0  0  0  0  0  0  0  0  0
   -4.9820    0.4720   -0.0890 C   0  0  0  0  0  0  0  0  0  0  0  0
   -7.5550   -0.3340    1.1370 C   0  0  0  0  0  0  0  0  0  0  0  0
   -8.2740    2.0160    0.6890 C   0  0  0  0  0  0  0  0  0  0  0  0
    5.2150    1.3430   -0.5420 C   0  0  0  0  0  0  0  0  0  0  0  0
    4.4880    2.6840   -0.6640 C   0  0  1  0  0  0  0  0  0  0  0  0
    3.4650    2.8340    0.4400 C   0  0  0  0  0  0  0  0  0  0  0  0
    5.4700    3.8560   -0.4330 C   0  0  0  0  0  0  0  0  0  0  0  0
   -0.0390   -2.0670    2.8360 C   0  0  0  0  0  0  0  0  0  0  0  0
    0.2560   -2.9390    4.0580 C   0  0  0  0  0  0  0  0  0  0  0  0
    1.1550   -1.5760    2.0150 C   0  0  1  0  0  0  0  0  0  0  0  0
    0.2260   -2.6740    1.4570 C   0  0  2  0  0  0  0  0  0  0  0  0
   -0.4600   -2.0280    0.2280 C   0  0  0  0  0  0  0  0  0  0  0  0
   -3.6970    0.8750   -0.0380 N   0  0  0  0  0  0  0  0  0  0  0  0
    4.2300    0.2030   -0.8050 C   0  0  1  0  0  0  0  0  0  0  0  0
    1.7520   -0.8170   -1.0910 O   0  0  0  0  0  0  0  0  0  0  0  0
   -1.1650    1.5070    0.5820 O   0  0  0  0  0  0  0  0  0  0  0  0
   -1.3410   -0.9560   -2.3750 C   0  0  0  0  0  0  0  0  0  0  0  0
   -3.7460   -0.3390   -2.6510 C   0  0  0  0  0  0  0  0  0  0  0  0
   -5.9670    1.3160    0.2780 N   0  0  0  0  0  0  0  0  0  0  0  0
   -7.3640    0.8780    0.2230 C   0  0  0  0  0  0  0  0  0  0  0  0
   -5.2530   -0.6510   -0.4660 O   0  0  0  0  0  0  0  0  0  0  0  0
   -7.7230    0.4950   -1.2140 C   0  0  0  0  0  0  0  0  0  0  0  0
    4.9820   -1.1300   -0.8060 C   0  0  2  0  0  0  0  0  0  0  0  0
    4.0110   -2.2540   -1.0650 C   0  0  0  0  0  0  0  0  0  0  0  0
    3.3750   -2.3350   -2.2500 N   0  0  0  0  0  0  0  0  0  0  0  0
    3.9350    3.6510    1.3980 N   0  0  0  0  0  0  0  0  0  0  0  0
    5.2850    4.1280    1.0760 C   0  0  0  0  0  0  0  0  0  0  0  0
    3.8020   -3.0850   -0.2060 O   0  0  0  0  0  0  0  0  0  0  0  0
    5.6080   -1.3250    0.4640 O   0  0  0  0  0  0  0  0  0  0  0  0
    2.3780    2.2950    0.4580 O   0  0  0  0  0  0  0  0  0  0  0  0
    2.4320   -3.4280   -2.5020 C   0  0  0  0  0  0  0  0  0  0  0  0
   -1.2360   -1.1240    2.9730 C   0  0  0  0  0  0  0  0  0  0  0  0
    3.4060    0.5620    1.1190 H   0  0  0  0  0  0  0  0  0  0  0  0
    0.9740    0.5650    1.6500 H   0  0  0  0  0  0  0  0  0  0  0  0
   -2.8920   -1.0590   -0.1510 H   0  0  0  0  0  0  0  0  0  0  0  0
   -1.0910    1.7080   -1.8560 H   0  0  0  0  0  0  0  0  0  0  0  0
   -1.8890    1.4960   -3.4330 H   0  0  0  0  0  0  0  0  0  0  0  0
   -2.8040    2.1480   -2.0520 H   0  0  0  0  0  0  0  0  0  0  0  0
   -8.5950   -0.6600    1.0960 H   0  0  0  0  0  0  0  0  0  0  0  0
   -6.9070   -1.1450    0.8050 H   0  0  0  0  0  0  0  0  0  0  0  0
   -7.3000   -0.0610    2.1610 H   0  0  0  0  0  0  0  0  0  0  0  0
   -8.0190    2.2890    1.7130 H   0  0  0  0  0  0  0  0  0  0  0  0
   -8.1380    2.8800    0.0380 H   0  0  0  0  0  0  0  0  0  0  0  0
   -9.3140    1.6910    0.6490 H   0  0  0  0  0  0  0  0  0  0  0  0
    6.0240    1.3010   -1.2720 H   0  0  0  0  0  0  0  0  0  0  0  0
    5.6270    1.2440    0.4620 H   0  0  0  0  0  0  0  0  0  0  0  0
    4.0110    2.7700   -1.6400 H   0  0  0  0  0  0  0  0  0  0  0  0
    6.4950    3.5550   -0.6520 H   0  0  0  0  0  0  0  0  0  0  0  0
    5.1850    4.7260   -1.0240 H   0  0  0  0  0  0  0  0  0  0  0  0
    0.8790   -2.3830    4.7590 H   0  0  0  0  0  0  0  0  0  0  0  0
   -0.6810   -3.2130    4.5440 H   0  0  0  0  0  0  0  0  0  0  0  0
    0.7800   -3.8410    3.7430 H   0  0  0  0  0  0  0  0  0  0  0  0
    2.1670   -1.7750    2.3670 H   0  0  0  0  0  0  0  0  0  0  0  0
    0.5230   -3.7190    1.3780 H   0  0  0  0  0  0  0  0  0  0  0  0
   -1.4970   -2.3540    0.1570 H   0  0  0  0  0  0  0  0  0  0  0  0
    0.0820   -2.2790   -0.6840 H   0  0  0  0  0  0  0  0  0  0  0  0
   -3.4810    1.7720    0.2620 H   0  0  0  0  0  0  0  0  0  0  0  0
    3.7520    0.3510   -1.7730 H   0  0  0  0  0  0  0  0  0  0  0  0
   -1.6510   -1.9710   -2.1290 H   0  0  0  0  0  0  0  0  0  0  0  0
   -1.1760   -0.8770   -3.4500 H   0  0  0  0  0  0  0  0  0  0  0  0
   -0.4170   -0.7200   -1.8480 H   0  0  0  0  0  0  0  0  0  0  0  0
   -4.5260    0.3610   -2.3510 H   0  0  0  0  0  0  0  0  0  0  0  0
   -3.6100   -0.2900   -3.7310 H   0  0  0  0  0  0  0  0  0  0  0  0
   -4.0380   -1.3500   -2.3670 H   0  0  0  0  0  0  0  0  0  0  0  0
   -5.7520    2.2120    0.5790 H   0  0  0  0  0  0  0  0  0  0  0  0
   -8.7620    0.1690   -1.2550 H   0  0  0  0  0  0  0  0  0  0  0  0
   -7.5870    1.3580   -1.8650 H   0  0  0  0  0  0  0  0  0  0  0  0
   -7.0740   -0.3170   -1.5460 H   0  0  0  0  0  0  0  0  0  0  0  0
    5.7410   -1.1180   -1.5880 H   0  0  0  0  0  0  0  0  0  0  0  0
    3.5420   -1.6710   -2.9370 H   0  0  0  0  0  0  0  0  0  0  0  0
    3.4450    3.8950    2.1990 H   0  0  0  0  0  0  0  0  0  0  0  0
    6.0280    3.5760    1.6530 H   0  0  0  0  0  0  0  0  0  0  0  0
    5.3660    5.1960    1.2800 H   0  0  0  0  0  0  0  0  0  0  0  0
    4.9910   -1.3460    1.2080 H   0  0  0  0  0  0  0  0  0  0  0  0
    2.0200   -3.3280   -3.5070 H   0  0  0  0  0  0  0  0  0  0  0  0
    2.9500   -4.3820   -2.4150 H   0  0  0  0  0  0  0  0  0  0  0  0
    1.6240   -3.3850   -1.7720 H   0  0  0  0  0  0  0  0  0  0  0  0
   -0.9160   -0.1980    3.4500 H   0  0  0  0  0  0  0  0  0  0  0  0
   -1.6390   -0.9030    1.9840 H   0  0  0  0  0  0  0  0  0  0  0  0
   -2.0060   -1.5990    3.5810 H   0  0  0  0  0  0  0  0  0  0  0  0
 19 20  1  0  0  0  0
 16 19  1  0  0  0  0
 18 19  1  0  0  0  0
  1 20  1  0  0  0  0
  7 26  1  0  0  0  0
  7 25  1  0  0  0  0
  9 29  2  0  0  0  0
 10 28  1  0  0  0  0
 16 17  1  0  0  0  0
 16 18  1  0  0  0  0
 16 40  1  0  0  0  0
  6  7  1  0  0  0  0
  7  8  1  0  0  0  0
  6 21  1  0  0  0  0
  4  6  1  0  0  0  0
  9 21  1  0  0  0  0
  9 27  1  0  0  0  0
  5 23  2  0  0  0  0
  3 18  1  0  0  0  0
  1  4  1  0  0  0  0
  1  3  1  0  0  0  0
 27 28  1  0  0  0  0
 11 28  1  0  0  0  0
 28 30  1  0  0  0  0
  4 24  2  0  0  0  0
 33 39  1  0  0  0  0
  3  5  1  0  0  0  0
  2  5  1  0  0  0  0
 31 37  1  0  0  0  0
 32 33  1  0  0  0  0
  2 22  1  0  0  0  0
 15 35  1  0  0  0  0
 13 15  1  0  0  0  0
 22 31  1  0  0  0  0
 12 22  1  0  0  0  0
 31 32  1  0  0  0  0
 32 36  2  0  0  0  0
 34 35  1  0  0  0  0
 12 13  1  0  0  0  0
 13 14  1  0  0  0  0
 14 34  1  0  0  0  0
 14 38  2  0  0  0  0
  2 41  1  0  0  0  0
  3 42  1  0  0  0  0
  6 43  1  0  0  0  0
  8 44  1  0  0  0  0
  8 45  1  0  0  0  0
  8 46  1  0  0  0  0
 10 47  1  0  0  0  0
 10 48  1  0  0  0  0
 10 49  1  0  0  0  0
 11 50  1  0  0  0  0
 11 51  1  0  0  0  0
 11 52  1  0  0  0  0
 12 53  1  0  0  0  0
 12 54  1  0  0  0  0
 13 55  1  0  0  0  0
 15 56  1  0  0  0  0
 15 57  1  0  0  0  0
 17 58  1  0  0  0  0
 17 59  1  0  0  0  0
 17 60  1  0  0  0  0
 18 61  1  0  0  0  0
 19 62  1  0  0  0  0
 20 63  1  0  0  0  0
 20 64  1  0  0  0  0
 21 65  1  0  0  0  0
 22 66  1  0  0  0  0
 25 67  1  0  0  0  0
 25 68  1  0  0  0  0
 25 69  1  0  0  0  0
 26 70  1  0  0  0  0
 26 71  1  0  0  0  0
 26 72  1  0  0  0  0
 27 73  1  0  0  0  0
 30 74  1  0  0  0  0
 30 75  1  0  0  0  0
 30 76  1  0  0  0  0
 31 77  1  0  0  0  0
 33 78  1  0  0  0  0
 34 79  1  0  0  0  0
 35 80  1  0  0  0  0
 35 81  1  0  0  0  0
 37 82  1  0  0  0  0
 39 83  1  0  0  0  0
 39 84  1  0  0  0  0
 39 85  1  0  0  0  0
 40 86  1  0  0  0  0
 40 87  1  0  0  0  0
 40 88  1  0  0  0  0
M  END
> <OPENEYE_ISO_SMILES>
CC1([C@@H]2[C@H]1[C@H](N(C2)C(=O)[C@H](C(C)(C)C)NC(=O)NC(C)(C)C)C(=O)N[C@@H](C[C@@H]3CCNC3=O)[C@H](C(=O)NC)O)C

> <OPENEYE_INCHI>
InChI=1S/C28H48N6O6/c1-26(2,3)20(32-25(40)33-27(4,5)6)24(39)34-13-15-17(28(15,7)8)18(34)22(37)31-16(19(35)23(38)29-9)12-14-10-11-30-21(14)36/h14-20,35H,10-13H2,1-9H3,(H,29,38)(H,30,36)(H,31,37)(H2,32,33,40)/t14-,15-,16-,17-,18-,19+,20+/m0/s1

> <OPENEYE_INCHIKEY>
VFDRLCYAHUFIDR-ZYRLFZHTSA-N

> <FORMULA>
C28H48N6O6

$$$$
