4MB
  -OEChem-02242320003D

 23 23  0     0  0  0  0  0  0999 V2000
    0.2360    1.0890   -0.5330 C   0  0  0  0  0  0  0  0  0  0  0  0
    2.3030   -0.0500   -0.1100 C   0  0  0  0  0  0  0  0  0  0  0  0
   -1.7590   -0.1850   -0.9790 N   0  0  0  0  0  0  0  0  0  0  0  0
   -0.4010   -0.1400   -0.6880 C   0  0  0  0  0  0  0  0  0  0  0  0
    1.5750    1.1370   -0.2410 C   0  0  0  0  0  0  0  0  0  0  0  0
    3.7440   -0.0030    0.1980 C   0  0  0  0  0  0  0  0  0  0  0  0
    1.6620   -1.2820   -0.2720 C   0  0  0  0  0  0  0  0  0  0  0  0
   -2.5890   -1.2140    1.3990 C   0  0  0  0  0  0  0  0  0  0  0  0
    0.3220   -1.3230   -0.5590 C   0  0  0  0  0  0  0  0  0  0  0  0
    4.3750   -1.0350    0.3120 O   0  0  0  0  0  0  0  0  0  0  0  0
    4.3600    1.1850    0.3540 O   0  0  0  0  0  0  0  0  0  0  0  0
   -2.8710    0.1260    0.2090 S   0  0  0  0  0  0  0  0  0  0  0  0
   -4.1090   -0.0280   -0.4700 O   0  0  0  0  0  0  0  0  0  0  0  0
   -2.4410    1.3800    0.7220 O   0  0  0  0  0  0  0  0  0  0  0  0
   -0.3270    2.0050   -0.6350 H   0  0  0  0  0  0  0  0  0  0  0  0
   -2.0570   -0.3980   -1.8770 H   0  0  0  0  0  0  0  0  0  0  0  0
    2.0670    2.0900   -0.1160 H   0  0  0  0  0  0  0  0  0  0  0  0
    2.2210   -2.2010   -0.1720 H   0  0  0  0  0  0  0  0  0  0  0  0
   -2.6570   -2.1740    0.8870 H   0  0  0  0  0  0  0  0  0  0  0  0
   -1.5980   -1.1060    1.8400 H   0  0  0  0  0  0  0  0  0  0  0  0
   -3.3440   -1.1670    2.1840 H   0  0  0  0  0  0  0  0  0  0  0  0
   -0.1750   -2.2740   -0.6840 H   0  0  0  0  0  0  0  0  0  0  0  0
    5.3050    1.2170    0.5570 H   0  0  0  0  0  0  0  0  0  0  0  0
  1  4  1  0  0  0  0
  1  5  2  0  0  0  0
  1 15  1  0  0  0  0
  2  5  1  0  0  0  0
  2  6  1  0  0  0  0
  2  7  2  0  0  0  0
  3  4  1  0  0  0  0
  3 12  1  0  0  0  0
  3 16  1  0  0  0  0
  4  9  2  0  0  0  0
  5 17  1  0  0  0  0
  6 10  2  0  0  0  0
  6 11  1  0  0  0  0
  7  9  1  0  0  0  0
  7 18  1  0  0  0  0
  8 12  1  0  0  0  0
  8 19  1  0  0  0  0
  8 20  1  0  0  0  0
  8 21  1  0  0  0  0
  9 22  1  0  0  0  0
 11 23  1  0  0  0  0
 12 13  2  0  0  0  0
 12 14  2  0  0  0  0
M  END
> <OPENEYE_ISO_SMILES>
CS(=O)(=O)Nc1ccc(cc1)C(=O)O

> <OPENEYE_INCHI>
InChI=1S/C8H9NO4S/c1-14(12,13)9-7-4-2-6(3-5-7)8(10)11/h2-5,9H,1H3,(H,10,11)

> <OPENEYE_INCHIKEY>
SROHFTOYGFCJAF-UHFFFAOYSA-N

> <FORMULA>
C8H9NO4S

$$$$
