NHE
  -OEChem-02242320033D

 30 30  0     0  0  0  0  0  0999 V2000
    0.8850    0.6170   -4.3660 C   0  0  0  0  0  0  0  0  0  0  0  0
    1.3250   -0.1560   -3.1220 C   0  0  0  0  0  0  0  0  0  0  0  0
    0.2790    0.0150   -2.0180 C   0  0  0  0  0  0  0  0  0  0  0  0
   -1.0680   -0.5210   -2.5040 C   0  0  0  0  0  0  0  0  0  0  0  0
    0.7010   -0.7280   -0.8230 N   0  0  0  0  0  0  0  0  0  0  0  0
    0.1560   -0.0080    0.3350 C   0  0  0  0  0  0  0  0  0  0  0  0
    0.5600   -0.7330    1.6200 C   0  0  0  0  0  0  0  0  0  0  0  0
   -0.1120    0.1540    3.0520 S   0  0  0  0  0  0  0  0  0  0  0  0
   -1.5250    0.0260    3.1310 O   0  0  0  0  0  0  0  0  0  0  0  0
    0.5450    1.3970    3.2530 O   0  0  0  0  0  0  0  0  0  0  0  0
    0.3680   -0.6760    4.2330 O   0  0  0  0  0  0  0  0  0  0  0  0
   -1.5070    0.2530   -3.7480 C   0  0  0  0  0  0  0  0  0  0  0  0
   -0.4610    0.0800   -4.8520 C   0  0  0  0  0  0  0  0  0  0  0  0
    0.7880    1.6750   -4.1200 H   0  0  0  0  0  0  0  0  0  0  0  0
    1.6300    0.4950   -5.1520 H   0  0  0  0  0  0  0  0  0  0  0  0
    2.2850    0.2250   -2.7760 H   0  0  0  0  0  0  0  0  0  0  0  0
    1.4220   -1.2140   -3.3680 H   0  0  0  0  0  0  0  0  0  0  0  0
    0.1820    1.0730   -1.7720 H   0  0  0  0  0  0  0  0  0  0  0  0
   -0.9700   -1.5780   -2.7500 H   0  0  0  0  0  0  0  0  0  0  0  0
   -1.8120   -0.3980   -1.7170 H   0  0  0  0  0  0  0  0  0  0  0  0
    1.7050   -0.6450   -0.7700 H   0  0  0  0  0  0  0  0  0  0  0  0
   -0.9300    0.0250    0.2630 H   0  0  0  0  0  0  0  0  0  0  0  0
    0.5520    1.0060    0.3510 H   0  0  0  0  0  0  0  0  0  0  0  0
    1.6470   -0.7680    1.6920 H   0  0  0  0  0  0  0  0  0  0  0  0
    0.1650   -1.7490    1.6040 H   0  0  0  0  0  0  0  0  0  0  0  0
    0.0350   -0.2450    5.0320 H   0  0  0  0  0  0  0  0  0  0  0  0
   -1.6040    1.3100   -3.5020 H   0  0  0  0  0  0  0  0  0  0  0  0
   -2.4670   -0.1290   -4.0940 H   0  0  0  0  0  0  0  0  0  0  0  0
   -0.7740    0.6320   -5.7380 H   0  0  0  0  0  0  0  0  0  0  0  0
   -0.3640   -0.9760   -5.0980 H   0  0  0  0  0  0  0  0  0  0  0  0
  1  2  1  0  0  0  0
  1 13  1  0  0  0  0
  1 14  1  0  0  0  0
  1 15  1  0  0  0  0
  2  3  1  0  0  0  0
  2 16  1  0  0  0  0
  2 17  1  0  0  0  0
  3  4  1  0  0  0  0
  3  5  1  0  0  0  0
  3 18  1  0  0  0  0
  4 12  1  0  0  0  0
  4 19  1  0  0  0  0
  4 20  1  0  0  0  0
  5  6  1  0  0  0  0
  5 21  1  0  0  0  0
  6  7  1  0  0  0  0
  6 22  1  0  0  0  0
  6 23  1  0  0  0  0
  7  8  1  0  0  0  0
  7 24  1  0  0  0  0
  7 25  1  0  0  0  0
  8  9  2  0  0  0  0
  8 10  2  0  0  0  0
  8 11  1  0  0  0  0
 11 26  1  0  0  0  0
 12 13  1  0  0  0  0
 12 27  1  0  0  0  0
 12 28  1  0  0  0  0
 13 29  1  0  0  0  0
 13 30  1  0  0  0  0
M  END
> <OPENEYE_ISO_SMILES>
C1CCC(CC1)NCCS(=O)(=O)O

> <OPENEYE_INCHI>
InChI=1S/C8H17NO3S/c10-13(11,12)7-6-9-8-4-2-1-3-5-8/h8-9H,1-7H2,(H,10,11,12)

> <OPENEYE_INCHIKEY>
MKWKNSIESPFAQN-UHFFFAOYSA-N

> <FORMULA>
C8H17NO3S

$$$$
