@<TRIPOS>MOLECULE
/home/pku/3cl/gett_pdb/7RVP/7RVP_mol2/ligand/7RVP_7VQ.pdb
 38 40 0 0 0
SMALL
GASTEIGER

@<TRIPOS>ATOM
      1  N          8.0780    0.9370   26.1760 N.am  401  7VQ401     -0.1611
      2  C          5.0800    1.3200   30.7720 C.ar  401  7VQ401     -0.0002
      3  O          6.5850   -0.6920   27.0090 O.3   401  7VQ401     -0.4285
      4  C1         5.5030    0.5220   31.8290 C.ar  401  7VQ401     -0.0000
      5  C10       10.0360    2.1950   26.7140 C.3   401  7VQ401      0.0291
      6  C11        9.8960    1.8690   28.1960 C.3   401  7VQ401      0.0023
      7  C12       10.8190    3.4830   26.4760 C.3   401  7VQ401      0.0023
      8  C13        8.6420    4.1460   22.7940 C.3   401  7VQ401      0.1803
      9  C14       10.0870    4.4730   22.6350 C.2   401  7VQ401      0.2617
     10  C15        7.8760    5.4110   22.4670 C.3   401  7VQ401      0.0955
     11  C16        6.4480    4.9960   22.3180 C.ar  401  7VQ401      0.1252
     12  C17        4.6510    3.7300   21.9980 C.ar  401  7VQ401      0.1791
     13  C18        4.2270    5.0160   22.2470 C.ar  401  7VQ401      0.0434
     14  C19        5.3370    5.8120   22.4470 C.ar  401  7VQ401      0.0363
     15  C2         5.9070   -0.7880   31.5890 C.ar  401  7VQ401     -0.0002
     16  C20       12.0900    4.3270   21.2030 C.3   401  7VQ401      0.1287
     17  C21       12.0240    5.0900   19.8840 C.3   401  7VQ401      0.2036
     18  C22       13.0220    3.1000   21.1030 C.3   401  7VQ401      0.0335
     19  C23       13.0660    2.4440   22.4640 C.3   401  7VQ401      0.0818
     20  C24       13.6790    3.4030   23.4870 C.3   401  7VQ401      0.0326
     21  C25       14.6500    2.5620   24.3050 C.3   401  7VQ401      0.1156
     22  C26       14.0070    1.2750   22.4880 C.2   401  7VQ401      0.2410
     23  C3         5.8900   -1.3040   30.2920 C.ar  401  7VQ401     -0.0007
     24  C4         5.4760   -0.5080   29.2220 C.ar  401  7VQ401      0.0213
     25  C5         5.0590    0.8020   29.4800 C.ar  401  7VQ401     -0.0007
     26  C6         5.4500   -1.0760   27.8080 C.3   401  7VQ401      0.2368
     27  C7         6.8540    0.6930   26.6330 C.2   401  7VQ401      0.4218
     28  C8         8.6720    2.2400   26.0410 C.3   401  7VQ401      0.1760
     29  C9         8.8900    2.5420   24.5920 C.2   401  7VQ401      0.2617
     30  N1         8.3210    3.6660   24.1230 N.am  401  7VQ401     -0.1959
     31  N2        10.7450    3.9090   21.5970 N.am  401  7VQ401     -0.2030
     32  N3        14.8230    1.3410   23.5270 N.am  401  7VQ401     -0.2054
     33  O1         5.9770    1.5490   26.7500 O.2   401  7VQ401     -0.2245
     34  O2         9.5740    1.7590   23.9140 O.2   401  7VQ401     -0.2715
     35  O3         6.0320    3.7270   22.0420 O.2   401  7VQ401     -0.4546
     36  O4        10.5750    5.2480   23.4380 O.2   401  7VQ401     -0.2715
     37  O5        14.0030    0.4140   21.6420 O.2   401  7VQ401     -0.2734
     38  O6        13.2700    5.6010   19.4300 O.3   401  7VQ401     -0.2185
@<TRIPOS>BOND
     1    38    17    1
     2    17    16    1
     3    18    16    1
     4    18    19    1
     5    16    31    1
     6    31     9   am
     7    37    22    2
     8    12    35   ar
     9    12    13   ar
    10    35    11   ar
    11    13    14   ar
    12    11    14   ar
    13    11    10    1
    14    19    22    1
    15    19    20    1
    16    10     8    1
    17    22    32   am
    18     9     8    1
    19     9    36    2
    20     8    30    1
    21    20    21    1
    22    32    21    1
    23    34    29    2
    24    30    29   am
    25    29    28    1
    26    28     1    1
    27    28     5    1
    28     1    27   am
    29     7     5    1
    30    27    33    2
    31    27     3    1
    32     5     6    1
    33     3    26    1
    34    26    24    1
    35    24    25   ar
    36    24    23   ar
    37    25     2   ar
    38    23    15   ar
    39     2     4   ar
    40    15     4   ar
