H6F
  -OEChem-02242320023D

 79 81  0     1  0  0  0  0  0999 V2000
    4.3670   -0.2850    2.2000 O   0  0  0  0  0  0  0  0  0  0  0  0
    4.2610    0.0550    1.0380 C   0  0  0  0  0  0  0  0  0  0  0  0
    5.4690    0.2230    0.2030 C   0  0  0  0  0  0  0  0  0  0  0  0
    5.3400    0.6220   -1.1390 C   0  0  0  0  0  0  0  0  0  0  0  0
    6.4340    0.7830   -1.9250 C   0  0  0  0  0  0  0  0  0  0  0  0
    6.7200   -0.0080    0.7510 C   0  0  0  0  0  0  0  0  0  0  0  0
    7.8620    0.1530   -0.0470 C   0  0  0  0  0  0  0  0  0  0  0  0
    9.1500   -0.0720    0.4730 C   0  0  0  0  0  0  0  0  0  0  0  0
   10.2380    0.0940   -0.3270 C   0  0  0  0  0  0  0  0  0  0  0  0
   10.0960    0.4850   -1.6580 C   0  0  0  0  0  0  0  0  0  0  0  0
    8.8660    0.7120   -2.1950 C   0  0  0  0  0  0  0  0  0  0  0  0
    7.7190    0.5500   -1.4010 C   0  0  0  0  0  0  0  0  0  0  0  0
    3.0410    0.2740    0.5090 N   0  0  0  0  0  0  0  0  0  0  0  0
    1.8430    0.1010    1.3340 C   0  0  2  0  0  0  0  0  0  0  0  0
    0.6630   -0.2060    0.4490 C   0  0  0  0  0  0  0  0  0  0  0  0
    0.7170    0.0320   -0.7390 O   0  0  0  0  0  0  0  0  0  0  0  0
    1.5730    1.3880    2.1160 C   0  0  0  0  0  0  0  0  0  0  0  0
    1.3090    2.5340    1.1370 C   0  0  0  0  0  0  0  0  0  0  0  0
    0.3490    1.1930    3.0140 C   0  0  0  0  0  0  0  0  0  0  0  0
   -0.4540   -0.7440    0.9770 N   0  0  0  0  0  0  0  0  0  0  0  0
   -1.5480   -1.1700    0.1010 C   0  0  2  0  0  0  0  0  0  0  0  0
   -2.8560   -1.0660    0.8420 C   0  0  0  0  0  0  0  0  0  0  0  0
   -2.8640   -1.0270    2.0540 O   0  0  0  0  0  0  0  0  0  0  0  0
   -1.3210   -2.6200   -0.3310 C   0  0  0  0  0  0  0  0  0  0  0  0
   -2.4220   -3.0410   -1.3060 C   0  0  0  0  0  0  0  0  0  0  0  0
   -2.3070   -2.2190   -2.5920 C   0  0  0  0  0  0  0  0  0  0  0  0
   -2.2720   -4.5270   -1.6350 C   0  0  0  0  0  0  0  0  0  0  0  0
   -5.7700    3.5010    0.1540 C   0  0  0  0  0  0  0  0  0  0  0  0
   -5.2830   -0.8510    0.8750 C   0  0  1  0  0  0  0  0  0  0  0  0
   -5.9250    2.0650    0.6710 C   0  0  0  0  0  0  0  0  0  0  0  0
   -6.8680    1.6090   -1.5800 C   0  0  0  0  0  0  0  0  0  0  0  0
   -6.3380   -0.2830   -0.0760 C   0  0  0  0  0  0  0  0  0  0  0  0
   -5.7430   -2.1890    1.3940 C   0  0  0  0  0  0  0  0  0  0  0  0
   -5.9140    1.1160   -0.5300 C   0  0  2  0  0  0  0  0  0  0  0  0
   -7.0280    3.8790   -0.6280 C   0  0  0  0  0  0  0  0  0  0  0  0
   -4.0160   -1.0150    0.1580 N   0  0  0  0  0  0  0  0  0  0  0  0
   -7.3390    2.8560   -1.6190 N   0  0  0  0  0  0  0  0  0  0  0  0
   -5.0810   -3.1780    1.1850 O   0  0  0  0  0  0  0  0  0  0  0  0
   -7.2280    0.8320   -2.4390 O   0  0  0  0  0  0  0  0  0  0  0  0
    4.3570    0.8030   -1.5490 H   0  0  0  0  0  0  0  0  0  0  0  0
    6.3190    1.0900   -2.9540 H   0  0  0  0  0  0  0  0  0  0  0  0
    6.8150   -0.3100    1.7830 H   0  0  0  0  0  0  0  0  0  0  0  0
    9.2740   -0.3750    1.5020 H   0  0  0  0  0  0  0  0  0  0  0  0
   11.2250   -0.0790    0.0740 H   0  0  0  0  0  0  0  0  0  0  0  0
   10.9760    0.6100   -2.2720 H   0  0  0  0  0  0  0  0  0  0  0  0
    8.7730    1.0150   -3.2270 H   0  0  0  0  0  0  0  0  0  0  0  0
    2.9560    0.5450   -0.4190 H   0  0  0  0  0  0  0  0  0  0  0  0
    1.9970   -0.7220    2.0320 H   0  0  0  0  0  0  0  0  0  0  0  0
    2.4400    1.6280    2.7310 H   0  0  0  0  0  0  0  0  0  0  0  0
    0.4420    2.2940    0.5220 H   0  0  0  0  0  0  0  0  0  0  0  0
    1.1170    3.4510    1.6940 H   0  0  0  0  0  0  0  0  0  0  0  0
    2.1810    2.6740    0.4980 H   0  0  0  0  0  0  0  0  0  0  0  0
   -0.5420    1.0840    2.3950 H   0  0  0  0  0  0  0  0  0  0  0  0
    0.4820    0.2960    3.6190 H   0  0  0  0  0  0  0  0  0  0  0  0
    0.2350    2.0580    3.6660 H   0  0  0  0  0  0  0  0  0  0  0  0
   -0.5340   -0.8500    1.9380 H   0  0  0  0  0  0  0  0  0  0  0  0
   -1.5780   -0.5290   -0.7810 H   0  0  0  0  0  0  0  0  0  0  0  0
   -0.3500   -2.7060   -0.8200 H   0  0  0  0  0  0  0  0  0  0  0  0
   -1.3440   -3.2680    0.5450 H   0  0  0  0  0  0  0  0  0  0  0  0
   -3.3970   -2.8660   -0.8500 H   0  0  0  0  0  0  0  0  0  0  0  0
   -3.1330   -2.4680   -3.2570 H   0  0  0  0  0  0  0  0  0  0  0  0
   -2.3430   -1.1570   -2.3490 H   0  0  0  0  0  0  0  0  0  0  0  0
   -1.3620   -2.4470   -3.0850 H   0  0  0  0  0  0  0  0  0  0  0  0
   -2.3540   -5.1120   -0.7200 H   0  0  0  0  0  0  0  0  0  0  0  0
   -3.0570   -4.8270   -2.3300 H   0  0  0  0  0  0  0  0  0  0  0  0
   -1.2970   -4.7010   -2.0910 H   0  0  0  0  0  0  0  0  0  0  0  0
   -5.6450    4.1810    0.9970 H   0  0  0  0  0  0  0  0  0  0  0  0
   -4.9000    3.5650   -0.4990 H   0  0  0  0  0  0  0  0  0  0  0  0
   -5.1410   -0.1670    1.7120 H   0  0  0  0  0  0  0  0  0  0  0  0
   -5.0970    1.8240    1.3370 H   0  0  0  0  0  0  0  0  0  0  0  0
   -6.8680    1.9680    1.2080 H   0  0  0  0  0  0  0  0  0  0  0  0
   -6.4320   -0.9340   -0.9450 H   0  0  0  0  0  0  0  0  0  0  0  0
   -7.2970   -0.2220    0.4390 H   0  0  0  0  0  0  0  0  0  0  0  0
   -6.6650   -2.2650    1.9520 H   0  0  0  0  0  0  0  0  0  0  0  0
   -4.9090    1.0710   -0.9480 H   0  0  0  0  0  0  0  0  0  0  0  0
   -7.8660    3.9770    0.0630 H   0  0  0  0  0  0  0  0  0  0  0  0
   -6.8650    4.8300   -1.1350 H   0  0  0  0  0  0  0  0  0  0  0  0
   -4.0120   -1.0860   -0.8090 H   0  0  0  0  0  0  0  0  0  0  0  0
   -7.9260    3.0980   -2.3530 H   0  0  0  0  0  0  0  0  0  0  0  0
 33 38  2  0  0  0  0
 29 33  1  0  0  0  0
 25 27  1  0  0  0  0
 29 36  1  0  0  0  0
 29 32  1  0  0  0  0
 24 25  1  0  0  0  0
 21 24  1  0  0  0  0
 22 36  1  0  0  0  0
 25 26  1  0  0  0  0
 32 34  1  0  0  0  0
 22 23  2  0  0  0  0
 21 22  1  0  0  0  0
 20 21  1  0  0  0  0
 30 34  1  0  0  0  0
 31 34  1  0  0  0  0
 28 30  1  0  0  0  0
 15 20  1  0  0  0  0
 31 39  2  0  0  0  0
 31 37  1  0  0  0  0
 28 35  1  0  0  0  0
 15 16  2  0  0  0  0
 14 15  1  0  0  0  0
 35 37  1  0  0  0  0
 17 19  1  0  0  0  0
 14 17  1  0  0  0  0
 13 14  1  0  0  0  0
 17 18  1  0  0  0  0
  2 13  1  0  0  0  0
  1  2  2  0  0  0  0
  2  3  1  0  0  0  0
  3  4  2  0  0  0  0
  4  5  1  0  0  0  0
  3  6  1  0  0  0  0
  5 12  2  0  0  0  0
  6  7  2  0  0  0  0
  7 12  1  0  0  0  0
 11 12  1  0  0  0  0
  7  8  1  0  0  0  0
 10 11  2  0  0  0  0
  8  9  2  0  0  0  0
  9 10  1  0  0  0  0
 36 78  1  0  0  0  0
 24 58  1  0  0  0  0
 24 59  1  0  0  0  0
 26 61  1  0  0  0  0
 26 62  1  0  0  0  0
 26 63  1  0  0  0  0
 14 48  1  0  0  0  0
 17 49  1  0  0  0  0
 18 50  1  0  0  0  0
 18 51  1  0  0  0  0
 18 52  1  0  0  0  0
  6 42  1  0  0  0  0
 33 74  1  0  0  0  0
 29 69  1  0  0  0  0
 32 72  1  0  0  0  0
 32 73  1  0  0  0  0
 34 75  1  0  0  0  0
 30 70  1  0  0  0  0
 30 71  1  0  0  0  0
 28 67  1  0  0  0  0
 28 68  1  0  0  0  0
 35 76  1  0  0  0  0
 35 77  1  0  0  0  0
 21 57  1  0  0  0  0
 25 60  1  0  0  0  0
 27 64  1  0  0  0  0
 27 65  1  0  0  0  0
 27 66  1  0  0  0  0
 19 53  1  0  0  0  0
 19 54  1  0  0  0  0
 19 55  1  0  0  0  0
  8 43  1  0  0  0  0
  9 44  1  0  0  0  0
 10 45  1  0  0  0  0
 11 46  1  0  0  0  0
  5 41  1  0  0  0  0
  4 40  1  0  0  0  0
 37 79  1  0  0  0  0
 20 56  1  0  0  0  0
 13 47  1  0  0  0  0
M  END
> <OPENEYE_ISO_SMILES>
CC(C)C[C@@H](C(=O)N[C@@H](C[C@@H]1CCCNC1=O)C=O)NC(=O)[C@H](C(C)C)NC(=O)c2ccc3ccccc3c2

> <OPENEYE_INCHI>
InChI=1S/C30H40N4O5/c1-18(2)14-25(29(38)32-24(17-35)16-22-10-7-13-31-27(22)36)33-30(39)26(19(3)4)34-28(37)23-12-11-20-8-5-6-9-21(20)15-23/h5-6,8-9,11-12,15,17-19,22,24-26H,7,10,13-14,16H2,1-4H3,(H,31,36)(H,32,38)(H,33,39)(H,34,37)/t22-,24-,25-,26-/m0/s1

> <OPENEYE_INCHIKEY>
VUMQTHGFOAZOLH-GKXKVECMSA-N

> <FORMULA>
C30H40N4O5

$$$$
