H69
  -OEChem-02242320023D

 39 41  0     0  0  0  0  0  0999 V2000
   -3.9780   -0.2640    0.3850 C   0  0  0  0  0  0  0  0  0  0  0  0
    2.4470    0.7170    0.8870 C   0  0  0  0  0  0  0  0  0  0  0  0
    3.6790    1.3340    1.0100 C   0  0  0  0  0  0  0  0  0  0  0  0
    4.7640    0.8610    0.2940 C   0  0  0  0  0  0  0  0  0  0  0  0
    4.6160   -0.2300   -0.5460 C   0  0  0  0  0  0  0  0  0  0  0  0
    3.3840   -0.8450   -0.6680 C   0  0  0  0  0  0  0  0  0  0  0  0
   -4.9560    1.8660    0.0260 C   0  0  0  0  0  0  0  0  0  0  0  0
   -2.9790   -1.1070    1.0870 C   0  0  0  0  0  0  0  0  0  0  0  0
   -5.8020    0.0550   -1.1850 C   0  0  0  0  0  0  0  0  0  0  0  0
   -4.8260   -0.8170   -0.5200 C   0  0  0  0  0  0  0  0  0  0  0  0
    0.9590   -1.0460   -0.0820 C   0  0  0  0  0  0  0  0  0  0  0  0
   -0.8350   -2.2860    1.1380 C   0  0  0  0  0  0  0  0  0  0  0  0
    0.5140   -1.5740    1.2840 C   0  0  0  0  0  0  0  0  0  0  0  0
   -0.0680   -0.0340   -0.5980 C   0  0  0  0  0  0  0  0  0  0  0  0
   -1.4230   -0.7280   -0.7650 C   0  0  0  0  0  0  0  0  0  0  0  0
    2.3010   -0.3750    0.0520 C   0  0  0  0  0  0  0  0  0  0  0  0
   -4.0580    1.0860    0.6500 N   0  0  0  0  0  0  0  0  0  0  0  0
   -5.8140    1.3700   -0.8820 N   0  0  0  0  0  0  0  0  0  0  0  0
   -1.7890   -1.3640    0.5080 N   0  0  0  0  0  0  0  0  0  0  0  0
   -4.9940    3.0520    0.2890 O   0  0  0  0  0  0  0  0  0  0  0  0
   -6.5810   -0.3990   -2.0030 O   0  0  0  0  0  0  0  0  0  0  0  0
   -3.2330   -1.5650    2.1820 O   0  0  0  0  0  0  0  0  0  0  0  0
    5.9750   -0.8200   -1.4500 Cl  0  0  0  0  0  0  0  0  0  0  0  0
    6.3100    1.6350    0.4490 Cl  0  0  0  0  0  0  0  0  0  0  0  0
    1.6000    1.0860    1.4460 H   0  0  0  0  0  0  0  0  0  0  0  0
    3.7930    2.1850    1.6650 H   0  0  0  0  0  0  0  0  0  0  0  0
    3.2680   -1.6960   -1.3230 H   0  0  0  0  0  0  0  0  0  0  0  0
   -4.7840   -1.8720   -0.7460 H   0  0  0  0  0  0  0  0  0  0  0  0
    1.0360   -1.8750   -0.7850 H   0  0  0  0  0  0  0  0  0  0  0  0
   -0.7150   -3.1710    0.5130 H   0  0  0  0  0  0  0  0  0  0  0  0
   -1.2010   -2.5790    2.1210 H   0  0  0  0  0  0  0  0  0  0  0  0
    1.2570   -2.2770    1.6610 H   0  0  0  0  0  0  0  0  0  0  0  0
    0.4130   -0.7420    1.9810 H   0  0  0  0  0  0  0  0  0  0  0  0
   -0.1630    0.7830    0.1170 H   0  0  0  0  0  0  0  0  0  0  0  0
    0.2610    0.3590   -1.5590 H   0  0  0  0  0  0  0  0  0  0  0  0
   -2.1790    0.0080   -1.0370 H   0  0  0  0  0  0  0  0  0  0  0  0
   -1.3520   -1.4850   -1.5470 H   0  0  0  0  0  0  0  0  0  0  0  0
   -3.4540    1.4800    1.3000 H   0  0  0  0  0  0  0  0  0  0  0  0
   -6.4530    1.9580   -1.3130 H   0  0  0  0  0  0  0  0  0  0  0  0
  9 21  2  0  0  0  0
  9 10  1  0  0  0  0
  9 18  1  0  0  0  0
  1 10  2  0  0  0  0
  7 18  1  0  0  0  0
  5 23  1  0  0  0  0
  1 17  1  0  0  0  0
  1  8  1  0  0  0  0
  7 17  1  0  0  0  0
  7 20  2  0  0  0  0
  8 22  2  0  0  0  0
  8 19  1  0  0  0  0
  5  6  2  0  0  0  0
  4  5  1  0  0  0  0
  6 16  1  0  0  0  0
 12 13  1  0  0  0  0
 11 13  1  0  0  0  0
 12 19  1  0  0  0  0
 15 19  1  0  0  0  0
  4 24  1  0  0  0  0
 11 14  1  0  0  0  0
 14 15  1  0  0  0  0
  3  4  2  0  0  0  0
 11 16  1  0  0  0  0
  2 16  2  0  0  0  0
  2  3  1  0  0  0  0
  2 25  1  0  0  0  0
  3 26  1  0  0  0  0
  6 27  1  0  0  0  0
 10 28  1  0  0  0  0
 11 29  1  0  0  0  0
 12 30  1  0  0  0  0
 12 31  1  0  0  0  0
 13 32  1  0  0  0  0
 13 33  1  0  0  0  0
 14 34  1  0  0  0  0
 14 35  1  0  0  0  0
 15 36  1  0  0  0  0
 15 37  1  0  0  0  0
 17 38  1  0  0  0  0
 18 39  1  0  0  0  0
M  END
> <OPENEYE_ISO_SMILES>
c1cc(c(cc1C2CCN(CC2)C(=O)c3cc(=O)[nH]c(=O)[nH]3)Cl)Cl

> <OPENEYE_INCHI>
InChI=1S/C16H15Cl2N3O3/c17-11-2-1-10(7-12(11)18)9-3-5-21(6-4-9)15(23)13-8-14(22)20-16(24)19-13/h1-2,7-9H,3-6H2,(H2,19,20,22,24)

> <OPENEYE_INCHIKEY>
BOEMYMIXDCTGER-UHFFFAOYSA-N

> <FORMULA>
C16H15Cl2N3O3

$$$$
