K1S
  -OEChem-02242320033D

 30 31  0     0  0  0  0  0  0999 V2000
   -2.3680   -0.7310    0.0630 N   0  0  0  0  0  0  0  0  0  0  0  0
   -0.3610    2.1030   -0.2980 N   0  0  0  0  0  0  0  0  0  0  0  0
    0.3310   -0.3160    0.0490 C   0  0  0  0  0  0  0  0  0  0  0  0
   -0.1840   -1.5870    0.2170 C   0  0  0  0  0  0  0  0  0  0  0  0
   -1.5650   -1.7620    0.2190 C   0  0  0  0  0  0  0  0  0  0  0  0
   -2.1450   -3.1410    0.4010 C   0  0  0  0  0  0  0  0  0  0  0  0
   -1.8850    0.5060   -0.1010 C   0  0  0  0  0  0  0  0  0  0  0  0
    1.6920   -0.1050    0.0420 N   0  0  0  0  0  0  0  0  0  0  0  0
    2.9520   -1.8250   -1.1560 C   0  0  0  0  0  0  0  0  0  0  0  0
    2.6090   -1.2340    0.2130 C   0  0  0  0  0  0  0  0  0  0  0  0
    2.2220    1.2490   -0.1370 C   0  0  0  0  0  0  0  0  0  0  0  0
    2.3830    1.9180    1.2300 C   0  0  0  0  0  0  0  0  0  0  0  0
   -1.5560    2.6330   -0.3900 C   0  0  0  0  0  0  0  0  0  0  0  0
   -2.4760    1.6830   -0.2730 N   0  0  0  0  0  0  0  0  0  0  0  0
   -0.5360    0.7260   -0.1100 N   0  0  0  0  0  0  0  0  0  0  0  0
    0.4760   -2.4330    0.3450 H   0  0  0  0  0  0  0  0  0  0  0  0
   -2.3010   -3.3330    1.4630 H   0  0  0  0  0  0  0  0  0  0  0  0
   -3.0980   -3.2070   -0.1240 H   0  0  0  0  0  0  0  0  0  0  0  0
   -1.4550   -3.8820   -0.0040 H   0  0  0  0  0  0  0  0  0  0  0  0
    2.0390   -2.1690   -1.6420 H   0  0  0  0  0  0  0  0  0  0  0  0
    3.4260   -1.0610   -1.7730 H   0  0  0  0  0  0  0  0  0  0  0  0
    3.6350   -2.6650   -1.0290 H   0  0  0  0  0  0  0  0  0  0  0  0
    3.5220   -0.8900    0.6990 H   0  0  0  0  0  0  0  0  0  0  0  0
    2.1350   -1.9970    0.8300 H   0  0  0  0  0  0  0  0  0  0  0  0
    3.1910    1.1970   -0.6320 H   0  0  0  0  0  0  0  0  0  0  0  0
    1.5320    1.8320   -0.7470 H   0  0  0  0  0  0  0  0  0  0  0  0
    1.4130    1.9700    1.7260 H   0  0  0  0  0  0  0  0  0  0  0  0
    3.0730    1.3360    1.8410 H   0  0  0  0  0  0  0  0  0  0  0  0
    2.7770    2.9260    1.0970 H   0  0  0  0  0  0  0  0  0  0  0  0
   -1.7610    3.6830   -0.5390 H   0  0  0  0  0  0  0  0  0  0  0  0
  9 10  1  0  0  0  0
  8 10  1  0  0  0  0
 11 12  1  0  0  0  0
  8 11  1  0  0  0  0
  3  8  1  0  0  0  0
  3  4  2  0  0  0  0
  3 15  1  0  0  0  0
  4  5  1  0  0  0  0
  2 15  1  0  0  0  0
  2 13  2  0  0  0  0
  7 15  1  0  0  0  0
  5  6  1  0  0  0  0
  1  5  2  0  0  0  0
 13 14  1  0  0  0  0
  1  7  1  0  0  0  0
  7 14  2  0  0  0  0
  4 16  1  0  0  0  0
  6 17  1  0  0  0  0
  6 18  1  0  0  0  0
  6 19  1  0  0  0  0
  9 20  1  0  0  0  0
  9 21  1  0  0  0  0
  9 22  1  0  0  0  0
 10 23  1  0  0  0  0
 10 24  1  0  0  0  0
 11 25  1  0  0  0  0
 11 26  1  0  0  0  0
 12 27  1  0  0  0  0
 12 28  1  0  0  0  0
 12 29  1  0  0  0  0
 13 30  1  0  0  0  0
M  END
> <OPENEYE_ISO_SMILES>
CCN(CC)c1cc(nc2n1ncn2)C

> <OPENEYE_INCHI>
InChI=1S/C10H15N5/c1-4-14(5-2)9-6-8(3)13-10-11-7-12-15(9)10/h6-7H,4-5H2,1-3H3

> <OPENEYE_INCHIKEY>
GSNOZLZNQMLSKJ-UHFFFAOYSA-N

> <FORMULA>
C10H15N5

$$$$
