PEG
  -OEChem-02242320033D

 17 16  0     0  0  0  0  0  0999 V2000
   -2.3390   -0.0420   -0.5880 C   0  0  0  0  0  0  0  0  0  0  0  0
   -2.6670   -0.7840    0.5880 O   0  0  0  0  0  0  0  0  0  0  0  0
   -1.1620    0.8900   -0.2920 C   0  0  0  0  0  0  0  0  0  0  0  0
    0.0000    0.1120    0.0000 O   0  0  0  0  0  0  0  0  0  0  0  0
    1.1620    0.8900    0.2920 C   0  0  0  0  0  0  0  0  0  0  0  0
    2.3390   -0.0420    0.5880 C   0  0  0  0  0  0  0  0  0  0  0  0
    2.6670   -0.7840   -0.5890 O   0  0  0  0  0  0  0  0  0  0  0  0
   -2.0650   -0.7310   -1.3880 H   0  0  0  0  0  0  0  0  0  0  0  0
   -3.2010    0.5490   -0.8970 H   0  0  0  0  0  0  0  0  0  0  0  0
   -3.4060   -1.3970    0.4730 H   0  0  0  0  0  0  0  0  0  0  0  0
   -0.9690    1.5190   -1.1610 H   0  0  0  0  0  0  0  0  0  0  0  0
   -1.4030    1.5190    0.5650 H   0  0  0  0  0  0  0  0  0  0  0  0
    1.4030    1.5190   -0.5640 H   0  0  0  0  0  0  0  0  0  0  0  0
    0.9690    1.5180    1.1620 H   0  0  0  0  0  0  0  0  0  0  0  0
    3.2010    0.5480    0.8980 H   0  0  0  0  0  0  0  0  0  0  0  0
    2.0650   -0.7310    1.3870 H   0  0  0  0  0  0  0  0  0  0  0  0
    3.4060   -1.3970   -0.4740 H   0  0  0  0  0  0  0  0  0  0  0  0
  1  2  1  0  0  0  0
  1  3  1  0  0  0  0
  1  8  1  0  0  0  0
  1  9  1  0  0  0  0
  2 10  1  0  0  0  0
  3  4  1  0  0  0  0
  3 11  1  0  0  0  0
  3 12  1  0  0  0  0
  4  5  1  0  0  0  0
  5  6  1  0  0  0  0
  5 13  1  0  0  0  0
  5 14  1  0  0  0  0
  6  7  1  0  0  0  0
  6 15  1  0  0  0  0
  6 16  1  0  0  0  0
  7 17  1  0  0  0  0
M  END
> <OPENEYE_ISO_SMILES>
C(COCCO)O

> <OPENEYE_INCHI>
InChI=1S/C4H10O3/c5-1-3-7-4-2-6/h5-6H,1-4H2

> <OPENEYE_INCHIKEY>
MTHSVFCYNBDYFN-UHFFFAOYSA-N

> <FORMULA>
C4H10O3

$$$$
