PGE
  -OEChem-02242320033D

 24 23  0     0  0  0  0  0  0999 V2000
    0.9130   -0.4580    3.4840 C   0  0  0  0  0  0  0  0  0  0  0  0
    0.9310    0.9390    3.7800 O   0  0  0  0  0  0  0  0  0  0  0  0
   -0.3140   -0.7830    2.6300 C   0  0  0  0  0  0  0  0  0  0  0  0
   -0.2560   -0.0390    1.4110 O   0  0  0  0  0  0  0  0  0  0  0  0
   -1.4230   -0.3830    0.6620 C   0  0  0  0  0  0  0  0  0  0  0  0
   -1.4230    0.3830   -0.6620 C   0  0  0  0  0  0  0  0  0  0  0  0
    0.9310   -0.9380   -3.7800 O   0  0  0  0  0  0  0  0  0  0  0  0
    0.9120    0.4590   -3.4840 C   0  0  0  0  0  0  0  0  0  0  0  0
   -0.3140    0.7830   -2.6300 C   0  0  0  0  0  0  0  0  0  0  0  0
   -0.2560    0.0390   -1.4110 O   0  0  0  0  0  0  0  0  0  0  0  0
    1.8170   -0.7260    2.9370 H   0  0  0  0  0  0  0  0  0  0  0  0
    0.8690   -1.0260    4.4140 H   0  0  0  0  0  0  0  0  0  0  0  0
    1.7180    1.1000    4.3180 H   0  0  0  0  0  0  0  0  0  0  0  0
   -0.3280   -1.8490    2.4040 H   0  0  0  0  0  0  0  0  0  0  0  0
   -1.2180   -0.5150    3.1770 H   0  0  0  0  0  0  0  0  0  0  0  0
   -1.4230   -1.4550    0.4610 H   0  0  0  0  0  0  0  0  0  0  0  0
   -2.3130   -0.1210    1.2330 H   0  0  0  0  0  0  0  0  0  0  0  0
   -2.3130    0.1200   -1.2330 H   0  0  0  0  0  0  0  0  0  0  0  0
   -1.4230    1.4540   -0.4610 H   0  0  0  0  0  0  0  0  0  0  0  0
    1.7180   -1.0990   -4.3180 H   0  0  0  0  0  0  0  0  0  0  0  0
    0.8680    1.0260   -4.4140 H   0  0  0  0  0  0  0  0  0  0  0  0
    1.8160    0.7270   -2.9370 H   0  0  0  0  0  0  0  0  0  0  0  0
   -1.2180    0.5150   -3.1770 H   0  0  0  0  0  0  0  0  0  0  0  0
   -0.3290    1.8490   -2.4040 H   0  0  0  0  0  0  0  0  0  0  0  0
  1  2  1  0  0  0  0
  1  3  1  0  0  0  0
  1 11  1  0  0  0  0
  1 12  1  0  0  0  0
  2 13  1  0  0  0  0
  3  4  1  0  0  0  0
  3 14  1  0  0  0  0
  3 15  1  0  0  0  0
  4  5  1  0  0  0  0
  5  6  1  0  0  0  0
  5 16  1  0  0  0  0
  5 17  1  0  0  0  0
  6 10  1  0  0  0  0
  6 18  1  0  0  0  0
  6 19  1  0  0  0  0
  7  8  1  0  0  0  0
  7 20  1  0  0  0  0
  8  9  1  0  0  0  0
  8 21  1  0  0  0  0
  8 22  1  0  0  0  0
  9 10  1  0  0  0  0
  9 23  1  0  0  0  0
  9 24  1  0  0  0  0
M  END
> <OPENEYE_ISO_SMILES>
C(COCCOCCO)O

> <OPENEYE_INCHI>
InChI=1S/C6H14O4/c7-1-3-9-5-6-10-4-2-8/h7-8H,1-6H2

> <OPENEYE_INCHIKEY>
ZIBGPFATKBEMQZ-UHFFFAOYSA-N

> <FORMULA>
C6H14O4

$$$$
