CY6
  -OEChem-02242320023D

 82 83  0     1  0  0  0  0  0999 V2000
   -8.4200   -0.5850   -4.4140 C   0  0  0  0  0  0  0  0  0  0  0  0
   -7.4690   -0.6060   -3.2460 C   0  0  0  0  0  0  0  0  0  0  0  0
   -6.5710   -1.5600   -2.9630 O   0  0  0  0  0  0  0  0  0  0  0  0
   -5.9410   -1.3020   -1.9630 N   0  0  0  0  0  0  0  0  0  0  0  0
   -6.3240   -0.1660   -1.4360 C   0  0  0  0  0  0  0  0  0  0  0  0
   -7.3540    0.3350   -2.2800 C   0  0  0  0  0  0  0  0  0  0  0  0
   -5.7890    0.4730   -0.2090 C   0  0  0  0  0  0  0  0  0  0  0  0
   -6.2360    1.5390    0.1660 O   0  0  0  0  0  0  0  0  0  0  0  0
   -4.8050   -0.1280    0.4900 N   0  0  0  0  0  0  0  0  0  0  0  0
   -4.2760    0.5030    1.7010 C   0  0  1  0  0  0  0  0  0  0  0  0
   -5.1550    0.1280    2.8970 C   0  0  0  0  0  0  0  0  0  0  0  0
   -4.6980    0.9100    4.1300 C   0  0  0  0  0  0  0  0  0  0  0  0
   -6.6130    0.4710    2.5860 C   0  0  0  0  0  0  0  0  0  0  0  0
   -2.8680    0.0240    1.9430 C   0  0  0  0  0  0  0  0  0  0  0  0
   -2.6480   -0.7970    2.8010 O   0  0  0  0  0  0  0  0  0  0  0  0
   -1.7340    0.5710    1.1140 C   0  0  0  0  0  0  0  0  0  0  0  0
   -0.4450   -0.1780    1.4580 C   0  0  1  0  0  0  0  0  0  0  0  0
   -0.5800   -1.6450    1.0420 C   0  0  0  0  0  0  0  0  0  0  0  0
    0.6290   -2.4130    1.5080 C   0  0  0  0  0  0  0  0  0  0  0  0
    1.4390   -2.9540    0.6320 C   0  0  0  0  0  0  0  0  0  0  0  0
    1.2600   -2.6690   -0.8360 C   0  0  0  0  0  0  0  0  0  0  0  0
    2.5500   -3.8620    1.0940 C   0  0  0  0  0  0  0  0  0  0  0  0
    0.7110    0.4480    0.7210 C   0  0  0  0  0  0  0  0  0  0  0  0
    0.5070    1.1310   -0.2600 O   0  0  0  0  0  0  0  0  0  0  0  0
    1.9730    0.2490    1.1530 N   0  0  0  0  0  0  0  0  0  0  0  0
    3.1010    0.7850    0.3880 C   0  0  2  0  0  0  0  0  0  0  0  0
    4.3320   -0.0400    0.6630 C   0  0  0  0  0  0  0  0  0  0  0  0
    4.9480   -0.6690   -0.3350 C   0  0  0  0  0  0  0  0  0  0  0  0
    6.1470   -1.4750   -0.0670 C   0  0  0  0  0  0  0  0  0  0  0  0
    6.5770   -1.5660    1.0660 O   0  0  0  0  0  0  0  0  0  0  0  0
    6.7710   -2.1120   -1.0780 O   0  0  0  0  0  0  0  0  0  0  0  0
    7.9560   -2.9070   -0.8140 C   0  0  0  0  0  0  0  0  0  0  0  0
    8.4640   -3.5170   -2.1220 C   0  0  0  0  0  0  0  0  0  0  0  0
    3.3570    2.2350    0.8050 C   0  0  0  0  0  0  0  0  0  0  0  0
    4.4540    2.8340   -0.0770 C   0  0  2  0  0  0  0  0  0  0  0  0
    4.8390    4.2460    0.4220 C   0  0  0  0  0  0  0  0  0  0  0  0
    5.1070    4.9870   -0.9070 C   0  0  0  0  0  0  0  0  0  0  0  0
    4.3130    4.2790   -1.9180 N   0  0  0  0  0  0  0  0  0  0  0  0
    3.9380    3.0610   -1.4810 C   0  0  0  0  0  0  0  0  0  0  0  0
    3.2810    2.2660   -2.1200 O   0  0  0  0  0  0  0  0  0  0  0  0
   -7.9470   -0.0860   -5.2600 H   0  0  0  0  0  0  0  0  0  0  0  0
   -8.6770   -1.6070   -4.6930 H   0  0  0  0  0  0  0  0  0  0  0  0
   -9.3260   -0.0460   -4.1360 H   0  0  0  0  0  0  0  0  0  0  0  0
   -7.9150    1.2520   -2.1750 H   0  0  0  0  0  0  0  0  0  0  0  0
   -4.4480   -0.9790    0.1900 H   0  0  0  0  0  0  0  0  0  0  0  0
   -4.2760    1.5860    1.5770 H   0  0  0  0  0  0  0  0  0  0  0  0
   -5.0660   -0.9410    3.0910 H   0  0  0  0  0  0  0  0  0  0  0  0
   -4.8470    1.9760    3.9600 H   0  0  0  0  0  0  0  0  0  0  0  0
   -5.2810    0.5960    4.9960 H   0  0  0  0  0  0  0  0  0  0  0  0
   -3.6420    0.7160    4.3140 H   0  0  0  0  0  0  0  0  0  0  0  0
   -6.9380   -0.0860    1.7070 H   0  0  0  0  0  0  0  0  0  0  0  0
   -7.2380    0.2040    3.4380 H   0  0  0  0  0  0  0  0  0  0  0  0
   -6.7010    1.5400    2.3910 H   0  0  0  0  0  0  0  0  0  0  0  0
   -1.6060    1.6320    1.3290 H   0  0  0  0  0  0  0  0  0  0  0  0
   -1.9600    0.4380    0.0560 H   0  0  0  0  0  0  0  0  0  0  0  0
   -0.2660   -0.1210    2.5310 H   0  0  0  0  0  0  0  0  0  0  0  0
   -1.4770   -2.0690    1.4930 H   0  0  0  0  0  0  0  0  0  0  0  0
   -0.6550   -1.7090   -0.0440 H   0  0  0  0  0  0  0  0  0  0  0  0
    0.8280   -2.5180    2.5650 H   0  0  0  0  0  0  0  0  0  0  0  0
    0.4770   -1.9230   -0.9690 H   0  0  0  0  0  0  0  0  0  0  0  0
    2.1960   -2.2910   -1.2500 H   0  0  0  0  0  0  0  0  0  0  0  0
    0.9790   -3.5870   -1.3530 H   0  0  0  0  0  0  0  0  0  0  0  0
    2.5210   -3.9480    2.1800 H   0  0  0  0  0  0  0  0  0  0  0  0
    2.4220   -4.8490    0.6480 H   0  0  0  0  0  0  0  0  0  0  0  0
    3.5100   -3.4470    0.7880 H   0  0  0  0  0  0  0  0  0  0  0  0
    2.1330   -0.2490    1.9690 H   0  0  0  0  0  0  0  0  0  0  0  0
    2.8700    0.7490   -0.6760 H   0  0  0  0  0  0  0  0  0  0  0  0
    4.7140   -0.1220    1.6700 H   0  0  0  0  0  0  0  0  0  0  0  0
    4.5660   -0.5880   -1.3420 H   0  0  0  0  0  0  0  0  0  0  0  0
    7.7100   -3.7050   -0.1120 H   0  0  0  0  0  0  0  0  0  0  0  0
    8.7320   -2.2730   -0.3840 H   0  0  0  0  0  0  0  0  0  0  0  0
    9.3530   -4.1150   -1.9230 H   0  0  0  0  0  0  0  0  0  0  0  0
    7.6880   -4.1520   -2.5510 H   0  0  0  0  0  0  0  0  0  0  0  0
    8.7100   -2.7200   -2.8230 H   0  0  0  0  0  0  0  0  0  0  0  0
    2.4400    2.8140    0.6890 H   0  0  0  0  0  0  0  0  0  0  0  0
    3.6740    2.2630    1.8480 H   0  0  0  0  0  0  0  0  0  0  0  0
    5.3280    2.1830   -0.0930 H   0  0  0  0  0  0  0  0  0  0  0  0
    4.0140    4.7060    0.9660 H   0  0  0  0  0  0  0  0  0  0  0  0
    5.7380    4.2100    1.0360 H   0  0  0  0  0  0  0  0  0  0  0  0
    4.7820    6.0250   -0.8320 H   0  0  0  0  0  0  0  0  0  0  0  0
    6.1660    4.9400   -1.1590 H   0  0  0  0  0  0  0  0  0  0  0  0
    4.0880    4.6410   -2.7890 H   0  0  0  0  0  0  0  0  0  0  0  0
  1  2  1  0  0  0  0
  1 41  1  0  0  0  0
  1 42  1  0  0  0  0
  1 43  1  0  0  0  0
  2  3  1  0  0  0  0
  2  6  2  0  0  0  0
  3  4  1  0  0  0  0
  4  5  2  0  0  0  0
  5  6  1  0  0  0  0
  5  7  1  0  0  0  0
  6 44  1  0  0  0  0
  7  8  2  0  0  0  0
  7  9  1  0  0  0  0
  9 10  1  0  0  0  0
  9 45  1  0  0  0  0
 10 11  1  0  0  0  0
 10 14  1  0  0  0  0
 10 46  1  0  0  0  0
 11 12  1  0  0  0  0
 11 13  1  0  0  0  0
 11 47  1  0  0  0  0
 12 48  1  0  0  0  0
 12 49  1  0  0  0  0
 12 50  1  0  0  0  0
 13 51  1  0  0  0  0
 13 52  1  0  0  0  0
 13 53  1  0  0  0  0
 14 15  2  0  0  0  0
 14 16  1  0  0  0  0
 16 17  1  0  0  0  0
 16 54  1  0  0  0  0
 16 55  1  0  0  0  0
 17 18  1  0  0  0  0
 17 23  1  0  0  0  0
 17 56  1  0  0  0  0
 18 19  1  0  0  0  0
 18 57  1  0  0  0  0
 18 58  1  0  0  0  0
 19 20  2  0  0  0  0
 19 59  1  0  0  0  0
 20 21  1  0  0  0  0
 20 22  1  0  0  0  0
 21 60  1  0  0  0  0
 21 61  1  0  0  0  0
 21 62  1  0  0  0  0
 22 63  1  0  0  0  0
 22 64  1  0  0  0  0
 22 65  1  0  0  0  0
 23 24  2  0  0  0  0
 23 25  1  0  0  0  0
 25 26  1  0  0  0  0
 25 66  1  0  0  0  0
 26 27  1  0  0  0  0
 26 34  1  0  0  0  0
 26 67  1  0  0  0  0
 27 28  2  0  0  0  0
 27 68  1  0  0  0  0
 28 29  1  0  0  0  0
 28 69  1  0  0  0  0
 29 30  2  0  0  0  0
 29 31  1  0  0  0  0
 31 32  1  0  0  0  0
 32 33  1  0  0  0  0
 32 70  1  0  0  0  0
 32 71  1  0  0  0  0
 33 72  1  0  0  0  0
 33 73  1  0  0  0  0
 33 74  1  0  0  0  0
 34 35  1  0  0  0  0
 34 75  1  0  0  0  0
 34 76  1  0  0  0  0
 35 36  1  0  0  0  0
 35 39  1  0  0  0  0
 35 77  1  0  0  0  0
 36 37  1  0  0  0  0
 36 78  1  0  0  0  0
 36 79  1  0  0  0  0
 37 38  1  0  0  0  0
 37 80  1  0  0  0  0
 37 81  1  0  0  0  0
 38 39  1  0  0  0  0
 38 82  1  0  0  0  0
 39 40  2  0  0  0  0
M  END
> <OPENEYE_ISO_SMILES>
CCOC(=O)/C=C/[C@H](C[C@@H]1CCNC1=O)NC(=O)[C@H](CC=C(C)C)CC(=O)[C@H](C(C)C)NC(=O)c2cc(on2)C

> <OPENEYE_INCHI>
InChI=1S/C29H42N4O7/c1-7-39-25(35)11-10-22(15-21-12-13-30-27(21)36)31-28(37)20(9-8-17(2)3)16-24(34)26(18(4)5)32-29(38)23-14-19(6)40-33-23/h8,10-11,14,18,20-22,26H,7,9,12-13,15-16H2,1-6H3,(H,30,36)(H,31,37)(H,32,38)/b11-10+/t20-,21+,22-,26+/m1/s1

> <OPENEYE_INCHIKEY>
CSNQHKJCKPMZCY-YFUAOJPXSA-N

> <FORMULA>
C29H42N4O7

$$$$
