@<TRIPOS>MOLECULE
/home/pku/3cl/gett_pdb/5S2L/5S2L_mol2/ligand/5S2L_VZS.pdb
 18 19 0 0 0
SMALL
GASTEIGER

@<TRIPOS>ATOM
      1  N1         4.7140   25.8220   15.8760 N.am  501  VZS501     -0.0747
      2  N3         7.4330   25.0060   18.0390 N.ar  501  VZS501     -0.1237
      3  C4         1.1930   30.2170   15.9650 C.ar  501  VZS501     -0.0204
      4  C5         1.5570   31.5870   16.4820 C.3   501  VZS501      0.0311
      5  C6         2.1260   29.1870   15.9700 C.ar  501  VZS501      0.0155
      6  C7         1.7890   27.9090   15.5310 C.ar  501  VZS501      0.1085
      7  C8         3.6690   26.5300   16.3720 C.2   501  VZS501      0.3639
      8  C10        6.9400   24.8020   15.9360 C.ar  501  VZS501      0.2224
      9  O1         3.5840   26.8790   17.5490 O.2   501  VZS501     -0.2469
     10  N2         5.8920   25.4070   16.5480 N.ar  501  VZS501     -0.1912
     11  N4         7.8790   24.5450   16.8040 N.ar  501  VZS501     -0.1237
     12  C9         6.2460   25.5140   17.8530 C.ar  501  VZS501      0.2224
     13  N          2.7480   26.8700   15.4090 N.am  501  VZS501     -0.1565
     14  C1         0.4730   27.6560   15.1090 C.ar  501  VZS501      0.1539
     15  O          0.2040   26.3450   14.8200 O.3   501  VZS501     -0.4701
     16  C         -1.1520   25.9870   14.5370 C.3   501  VZS501      0.2525
     17  C3        -0.0900   29.9490   15.4970 C.ar  501  VZS501     -0.0011
     18  C2        -0.4590   28.6830   15.0760 C.ar  501  VZS501      0.0379
@<TRIPOS>BOND
     1    16    15    1
     2    15    14    1
     3    18    14   ar
     4    18    17   ar
     5    14     6   ar
     6    13     6    1
     7    13     7   am
     8    17     3   ar
     9     6     5   ar
    10     1     7   am
    11     1    10    1
    12     8    10   ar
    13     8    11   ar
    14     3     5   ar
    15     3     4    1
    16     7     9    2
    17    10    12   ar
    18    11     2   ar
    19    12     2   ar
