VWJ
  -OEChem-02242320043D

 26 27  0     0  0  0  0  0  0999 V2000
   -2.0700   -0.7680    0.0040 N   0  0  0  0  0  0  0  0  0  0  0  0
   -0.1690    0.7400    0.2080 N   0  0  0  0  0  0  0  0  0  0  0  0
   -0.7180   -0.4950    0.0160 C   0  0  0  0  0  0  0  0  0  0  0  0
    1.4430   -0.7720   -0.0920 C   0  0  0  0  0  0  0  0  0  0  0  0
    2.7560   -1.2340   -0.2070 C   0  0  0  0  0  0  0  0  0  0  0  0
    3.8050   -0.3490   -0.0880 C   0  0  0  0  0  0  0  0  0  0  0  0
    3.5660    0.9990    0.1340 C   0  0  0  0  0  0  0  0  0  0  0  0
    1.2070    0.5920    0.1440 C   0  0  0  0  0  0  0  0  0  0  0  0
   -3.3080    1.0070   -1.1360 C   0  0  0  0  0  0  0  0  0  0  0  0
   -3.0370    0.3150    0.2010 C   0  0  0  0  0  0  0  0  0  0  0  0
   -4.3440   -0.2620    0.7500 C   0  0  0  0  0  0  0  0  0  0  0  0
    0.2300   -1.3830   -0.1550 N   0  0  0  0  0  0  0  0  0  0  0  0
    2.2740    1.4700    0.2550 C   0  0  0  0  0  0  0  0  0  0  0  0
   -2.3800   -1.6750   -0.1400 H   0  0  0  0  0  0  0  0  0  0  0  0
   -0.6520    1.5680    0.3570 H   0  0  0  0  0  0  0  0  0  0  0  0
    2.9480   -2.2810   -0.3880 H   0  0  0  0  0  0  0  0  0  0  0  0
    4.8200   -0.7050   -0.1810 H   0  0  0  0  0  0  0  0  0  0  0  0
    4.3970    1.6830    0.2260 H   0  0  0  0  0  0  0  0  0  0  0  0
   -4.0280    1.8120   -0.9890 H   0  0  0  0  0  0  0  0  0  0  0  0
   -2.3770    1.4180   -1.5270 H   0  0  0  0  0  0  0  0  0  0  0  0
   -3.7120    0.2840   -1.8450 H   0  0  0  0  0  0  0  0  0  0  0  0
   -2.6340    1.0380    0.9100 H   0  0  0  0  0  0  0  0  0  0  0  0
   -4.1510   -0.7560    1.7030 H   0  0  0  0  0  0  0  0  0  0  0  0
   -5.0630    0.5430    0.8970 H   0  0  0  0  0  0  0  0  0  0  0  0
   -4.7470   -0.9860    0.0410 H   0  0  0  0  0  0  0  0  0  0  0  0
    2.0950    2.5190    0.4370 H   0  0  0  0  0  0  0  0  0  0  0  0
  6  7  2  0  0  0  0
  5  6  1  0  0  0  0
 10 11  1  0  0  0  0
  7 13  1  0  0  0  0
  4  5  2  0  0  0  0
  8 13  2  0  0  0  0
  4  8  1  0  0  0  0
  4 12  1  0  0  0  0
  2  8  1  0  0  0  0
  3 12  2  0  0  0  0
  2  3  1  0  0  0  0
  1 10  1  0  0  0  0
  9 10  1  0  0  0  0
  1  3  1  0  0  0  0
  1 14  1  0  0  0  0
  2 15  1  0  0  0  0
  5 16  1  0  0  0  0
  6 17  1  0  0  0  0
  7 18  1  0  0  0  0
  9 19  1  0  0  0  0
  9 20  1  0  0  0  0
  9 21  1  0  0  0  0
 10 22  1  0  0  0  0
 11 23  1  0  0  0  0
 11 24  1  0  0  0  0
 11 25  1  0  0  0  0
 13 26  1  0  0  0  0
M  END
> <OPENEYE_ISO_SMILES>
CC(C)Nc1[nH]c2ccccc2n1

> <OPENEYE_INCHI>
InChI=1S/C10H13N3/c1-7(2)11-10-12-8-5-3-4-6-9(8)13-10/h3-7H,1-2H3,(H2,11,12,13)

> <OPENEYE_INCHIKEY>
KRNAPWQWOXYDPY-UHFFFAOYSA-N

> <FORMULA>
C10H13N3

$$$$
