FL6
  -OEChem-02242320023D

 19 18  0     1  0  0  0  0  0999 V2000
    0.7930    1.7050   -0.0460 N   0  0  0  0  0  0  0  0  0  0  0  0
    0.9110    0.2960    0.3510 C   0  0  2  0  0  0  0  0  0  0  0  0
    2.2950   -0.2040    0.0240 C   0  0  0  0  0  0  0  0  0  0  0  0
    2.9720    0.3800   -0.7890 O   0  0  0  0  0  0  0  0  0  0  0  0
   -0.1240   -0.5360   -0.4090 C   0  0  0  0  0  0  0  0  0  0  0  0
   -1.5100   -0.1180    0.0110 C   0  0  0  0  0  0  0  0  0  0  0  0
   -1.6550    0.7550    0.8330 O   0  0  0  0  0  0  0  0  0  0  0  0
   -2.5840   -0.7160   -0.5290 O   0  0  0  0  0  0  0  0  0  0  0  0
   -3.8870   -0.2630   -0.0770 C   0  0  0  0  0  0  0  0  0  0  0  0
    2.7750   -1.2990    0.6350 O   0  0  0  0  0  0  0  0  0  0  0  0
    0.9520    1.8170   -1.0360 H   0  0  0  0  0  0  0  0  0  0  0  0
   -0.1040    2.0820    0.2210 H   0  0  0  0  0  0  0  0  0  0  0  0
    0.7350    0.2040    1.4230 H   0  0  0  0  0  0  0  0  0  0  0  0
   -0.0050   -0.3750   -1.4800 H   0  0  0  0  0  0  0  0  0  0  0  0
    0.0210   -1.5920   -0.1820 H   0  0  0  0  0  0  0  0  0  0  0  0
   -3.9740   -0.4200    0.9980 H   0  0  0  0  0  0  0  0  0  0  0  0
   -4.0000    0.7980   -0.3000 H   0  0  0  0  0  0  0  0  0  0  0  0
   -4.6660   -0.8270   -0.5910 H   0  0  0  0  0  0  0  0  0  0  0  0
    3.6670   -1.5810    0.3930 H   0  0  0  0  0  0  0  0  0  0  0  0
  1  2  1  0  0  0  0
  2  5  1  0  0  0  0
  2  3  1  0  0  0  0
  5  6  1  0  0  0  0
  3  4  2  0  0  0  0
  6  7  2  0  0  0  0
  6  8  1  0  0  0  0
  8  9  1  0  0  0  0
  3 10  1  0  0  0  0
  1 11  1  0  0  0  0
  1 12  1  0  0  0  0
  2 13  1  0  0  0  0
  5 14  1  0  0  0  0
  5 15  1  0  0  0  0
  9 16  1  0  0  0  0
  9 17  1  0  0  0  0
  9 18  1  0  0  0  0
 10 19  1  0  0  0  0
M  END
> <OPENEYE_ISO_SMILES>
COC(=O)C[C@@H](C(=O)O)N

> <OPENEYE_INCHI>
InChI=1S/C5H9NO4/c1-10-4(7)2-3(6)5(8)9/h3H,2,6H2,1H3,(H,8,9)/t3-/m0/s1

> <OPENEYE_INCHIKEY>
SBRYFUVVWOMLLP-VKHMYHEASA-N

> <FORMULA>
C5H9NO4

$$$$
