WGO
  -OEChem-02242320043D

 74 75  0     1  0  0  0  0  0999 V2000
    4.6360    0.5190   -0.4420 C   0  0  1  0  0  0  0  0  0  0  0  0
    4.7910   -0.6550   -1.4110 C   0  0  0  0  0  0  0  0  0  0  0  0
    5.2220   -1.9020   -0.6370 C   0  0  1  0  0  0  0  0  0  0  0  0
    5.3720   -3.0810   -1.5740 C   0  0  0  0  0  0  0  0  0  0  0  0
    2.2920    0.0760    0.0550 C   0  0  0  0  0  0  0  0  0  0  0  0
   -1.2640    0.0530    0.9020 C   0  0  0  0  0  0  0  0  0  0  0  0
   -4.7020    0.9380   -1.2250 C   0  0  0  0  0  0  0  0  0  0  0  0
   -7.2190    0.1960    0.0690 C   0  0  0  0  0  0  0  0  0  0  0  0
   -7.2170   -0.2520   -1.2430 C   0  0  0  0  0  0  0  0  0  0  0  0
   -4.8450    0.0610    0.0200 C   0  0  0  0  0  0  0  0  0  0  0  0
   -4.9110   -1.4100   -0.3970 C   0  0  0  0  0  0  0  0  0  0  0  0
   -8.4130   -0.4780   -1.8970 C   0  0  0  0  0  0  0  0  0  0  0  0
   -8.4210    0.4170    0.7240 C   0  0  0  0  0  0  0  0  0  0  0  0
   -9.6160    0.1910    0.0670 C   0  0  0  0  0  0  0  0  0  0  0  0
   -9.6130   -0.2570   -1.2430 C   0  0  0  0  0  0  0  0  0  0  0  0
    4.1750    3.1910   -0.0840 S   0  0  0  0  0  0  0  0  0  0  0  0
   -3.6400    0.2770    0.9370 C   0  0  0  0  0  0  0  0  0  0  0  0
    1.1630   -0.1170    1.0350 C   0  0  2  0  0  0  0  0  0  0  0  0
    1.4190   -1.3750    1.8660 C   0  0  0  0  0  0  0  0  0  0  0  0
    0.3390   -1.5030    2.9430 C   0  0  0  0  0  0  0  0  0  0  0  0
    0.5210   -2.8240    3.6940 C   0  0  0  0  0  0  0  0  0  0  0  0
    0.4590   -0.3370    3.9260 C   0  0  0  0  0  0  0  0  0  0  0  0
    7.2360   -3.1240   -0.1900 C   0  0  0  0  0  0  0  0  0  0  0  0
    6.6360   -1.7080   -0.0420 C   0  0  0  0  0  0  0  0  0  0  0  0
    4.3040    1.7890   -1.2270 C   0  0  1  0  0  0  0  0  0  0  0  0
  -10.7810   -0.4770   -1.8840 F   0  0  0  0  0  0  0  0  0  0  0  0
   -0.0980   -0.2620    0.3040 N   0  0  0  0  0  0  0  0  0  0  0  0
    3.5540    0.2320    0.5030 N   0  0  0  0  0  0  0  0  0  0  0  0
    6.5100   -3.7430   -1.3040 N   0  0  0  0  0  0  0  0  0  0  0  0
   -6.0430    0.4130    0.7160 O   0  0  0  0  0  0  0  0  0  0  0  0
   -2.4230   -0.0810    0.2300 O   0  0  0  0  0  0  0  0  0  0  0  0
    4.5800   -3.3840   -2.4410 O   0  0  0  0  0  0  0  0  0  0  0  0
    5.3390    2.0440   -2.1790 O   0  0  0  0  0  0  0  0  0  0  0  0
    2.0650    0.0900   -1.1360 O   0  0  0  0  0  0  0  0  0  0  0  0
   -1.2690    0.4580    2.0480 O   0  0  0  0  0  0  0  0  0  0  0  0
    5.5670    0.6630    0.1060 H   0  0  0  0  0  0  0  0  0  0  0  0
    3.8390   -0.8450   -1.9060 H   0  0  0  0  0  0  0  0  0  0  0  0
    5.5470   -0.4120   -2.1580 H   0  0  0  0  0  0  0  0  0  0  0  0
    4.5040   -2.1280    0.1520 H   0  0  0  0  0  0  0  0  0  0  0  0
   -4.0040    0.4710   -1.9200 H   0  0  0  0  0  0  0  0  0  0  0  0
   -5.6740    1.0470   -1.7060 H   0  0  0  0  0  0  0  0  0  0  0  0
   -4.3260    1.9190   -0.9370 H   0  0  0  0  0  0  0  0  0  0  0  0
   -6.2810   -0.4240   -1.7540 H   0  0  0  0  0  0  0  0  0  0  0  0
   -4.0790   -1.6370   -1.0630 H   0  0  0  0  0  0  0  0  0  0  0  0
   -4.8500   -2.0420    0.4890 H   0  0  0  0  0  0  0  0  0  0  0  0
   -5.8520   -1.5990   -0.9140 H   0  0  0  0  0  0  0  0  0  0  0  0
   -8.4110   -0.8260   -2.9190 H   0  0  0  0  0  0  0  0  0  0  0  0
   -8.4240    0.7660    1.7460 H   0  0  0  0  0  0  0  0  0  0  0  0
  -10.5520    0.3620    0.5770 H   0  0  0  0  0  0  0  0  0  0  0  0
   -3.5930    1.3250    1.2340 H   0  0  0  0  0  0  0  0  0  0  0  0
   -3.7420   -0.3480    1.8250 H   0  0  0  0  0  0  0  0  0  0  0  0
    1.1030    0.7490    1.6940 H   0  0  0  0  0  0  0  0  0  0  0  0
    1.3910   -2.2510    1.2180 H   0  0  0  0  0  0  0  0  0  0  0  0
    2.3980   -1.3050    2.3400 H   0  0  0  0  0  0  0  0  0  0  0  0
   -0.6450   -1.4840    2.4750 H   0  0  0  0  0  0  0  0  0  0  0  0
    1.5060   -2.8430    4.1620 H   0  0  0  0  0  0  0  0  0  0  0  0
   -0.2480   -2.9140    4.4610 H   0  0  0  0  0  0  0  0  0  0  0  0
    0.4360   -3.6540    2.9940 H   0  0  0  0  0  0  0  0  0  0  0  0
   -0.3100   -0.4280    4.6930 H   0  0  0  0  0  0  0  0  0  0  0  0
    1.4440   -0.3560    4.3940 H   0  0  0  0  0  0  0  0  0  0  0  0
    0.3290    0.6040    3.3910 H   0  0  0  0  0  0  0  0  0  0  0  0
    8.3000   -3.0610   -0.4220 H   0  0  0  0  0  0  0  0  0  0  0  0
    7.0840   -3.6960    0.7260 H   0  0  0  0  0  0  0  0  0  0  0  0
    7.2060   -0.9810   -0.6200 H   0  0  0  0  0  0  0  0  0  0  0  0
    6.5810   -1.4150    1.0060 H   0  0  0  0  0  0  0  0  0  0  0  0
    3.3560    1.6570   -1.7480 H   0  0  0  0  0  0  0  0  0  0  0  0
   -0.0940   -0.5860   -0.6110 H   0  0  0  0  0  0  0  0  0  0  0  0
    3.7450    0.1550    1.4510 H   0  0  0  0  0  0  0  0  0  0  0  0
    6.8120   -4.5300   -1.7850 H   0  0  0  0  0  0  0  0  0  0  0  0
    5.4640    1.3340   -2.8240 H   0  0  0  0  0  0  0  0  0  0  0  0
    5.3100    3.2430    0.7710 O   0  0  0  0  0  0  0  0  0  0  0  0
    3.7180    4.3510   -0.7660 O   0  0  0  0  0  0  0  0  0  0  0  0
    3.0250    2.8220    0.8420 O   0  0  0  0  0  0  0  0  0  0  0  0
    2.8350    3.4870    1.5180 H   0  0  0  0  0  0  0  0  0  0  0  0
  4 32  2  0  0  0  0
  7 10  1  0  0  0  0
 10 11  1  0  0  0  0
  4 29  1  0  0  0  0
  3  4  1  0  0  0  0
 10 17  1  0  0  0  0
 10 30  1  0  0  0  0
 23 29  1  0  0  0  0
  6 35  2  0  0  0  0
 17 31  1  0  0  0  0
  9 12  2  0  0  0  0
  8  9  1  0  0  0  0
 12 15  1  0  0  0  0
  6 31  1  0  0  0  0
  6 27  1  0  0  0  0
  8 30  1  0  0  0  0
  8 13  2  0  0  0  0
  2  3  1  0  0  0  0
  3 24  1  0  0  0  0
 15 26  1  0  0  0  0
 14 15  2  0  0  0  0
 23 24  1  0  0  0  0
 20 22  1  0  0  0  0
  1  2  1  0  0  0  0
 13 14  1  0  0  0  0
 18 27  1  0  0  0  0
 16 25  1  0  0  0  0
  5 18  1  0  0  0  0
 18 19  1  0  0  0  0
  5 28  1  0  0  0  0
  1 28  1  0  0  0  0
  5 34  2  0  0  0  0
 19 20  1  0  0  0  0
 20 21  1  0  0  0  0
  1 25  1  0  0  0  0
 25 33  1  0  0  0  0
  1 36  1  0  0  0  0
  2 37  1  0  0  0  0
  2 38  1  0  0  0  0
  3 39  1  0  0  0  0
  7 40  1  0  0  0  0
  7 41  1  0  0  0  0
  7 42  1  0  0  0  0
  9 43  1  0  0  0  0
 11 44  1  0  0  0  0
 11 45  1  0  0  0  0
 11 46  1  0  0  0  0
 12 47  1  0  0  0  0
 13 48  1  0  0  0  0
 14 49  1  0  0  0  0
 17 50  1  0  0  0  0
 17 51  1  0  0  0  0
 18 52  1  0  0  0  0
 19 53  1  0  0  0  0
 19 54  1  0  0  0  0
 20 55  1  0  0  0  0
 21 56  1  0  0  0  0
 21 57  1  0  0  0  0
 21 58  1  0  0  0  0
 22 59  1  0  0  0  0
 22 60  1  0  0  0  0
 22 61  1  0  0  0  0
 23 62  1  0  0  0  0
 23 63  1  0  0  0  0
 24 64  1  0  0  0  0
 24 65  1  0  0  0  0
 25 66  1  0  0  0  0
 27 67  1  0  0  0  0
 28 68  1  0  0  0  0
 29 69  1  0  0  0  0
 33 70  1  0  0  0  0
 16 71  2  0  0  0  0
 16 72  2  0  0  0  0
 16 73  1  0  0  0  0
 73 74  1  0  0  0  0
M  END
> <OPENEYE_ISO_SMILES>
CC(C)C[C@@H](C(=O)N[C@@H](C[C@@H]1CCNC1=O)[C@H](O)S(=O)(=O)O)NC(=O)OCC(C)(C)Oc2ccc(cc2)F

> <OPENEYE_INCHI>
InChI=1S/C24H36FN3O9S/c1-14(2)11-18(28-23(32)36-13-24(3,4)37-17-7-5-16(25)6-8-17)21(30)27-19(22(31)38(33,34)35)12-15-9-10-26-20(15)29/h5-8,14-15,18-19,22,31H,9-13H2,1-4H3,(H,26,29)(H,27,30)(H,28,32)(H,33,34,35)/t15-,18-,19-,22+/m0/s1

> <OPENEYE_INCHIKEY>
QTWROJFQZPJPGQ-SXTKRDDTSA-N

> <FORMULA>
C24H36FN3O9S

$$$$
