WGU
  -OEChem-02242320043D

 74 75  0     1  0  0  0  0  0999 V2000
    7.6070   -0.4450    0.2370 C   0  0  0  0  0  0  0  0  0  0  0  0
    5.2690   -0.0400    0.0830 C   0  0  0  0  0  0  0  0  0  0  0  0
    5.0350   -1.1250   -0.9700 C   0  0  0  0  0  0  0  0  0  0  0  0
    5.5160    1.3000   -0.6130 C   0  0  0  0  0  0  0  0  0  0  0  0
    4.0360    0.0720    0.9830 C   0  0  0  0  0  0  0  0  0  0  0  0
    1.7050    0.5580    0.8230 C   0  0  0  0  0  0  0  0  0  0  0  0
   -0.6610    1.1380    0.8480 C   0  0  1  0  0  0  0  0  0  0  0  0
   -0.7380    2.6190    1.2240 C   0  0  0  0  0  0  0  0  0  0  0  0
   -1.9910    2.8660    2.0670 C   0  0  0  0  0  0  0  0  0  0  0  0
   -1.8760    2.1040    3.3880 C   0  0  0  0  0  0  0  0  0  0  0  0
   -2.1260    4.3640    2.3520 C   0  0  0  0  0  0  0  0  0  0  0  0
   -1.8260    0.7850   -0.0400 C   0  0  0  0  0  0  0  0  0  0  0  0
   -6.2120    0.6980   -1.9850 S   0  0  0  0  0  0  0  0  0  0  0  0
   -4.1230    0.0320   -0.3490 C   0  0  1  0  0  0  0  0  0  0  0  0
   -5.0100   -0.9370    0.4350 C   0  0  0  0  0  0  0  0  0  0  0  0
   -4.1900   -2.1610    0.8450 C   0  0  1  0  0  0  0  0  0  0  0  0
   -5.0490   -3.1420    1.6120 C   0  0  0  0  0  0  0  0  0  0  0  0
    7.6700   -0.2820   -1.1380 C   0  0  0  0  0  0  0  0  0  0  0  0
    8.8900   -0.3400   -1.7850 C   0  0  0  0  0  0  0  0  0  0  0  0
    8.7680   -0.6670    0.9630 C   0  0  0  0  0  0  0  0  0  0  0  0
    9.9860   -0.7250    0.3140 C   0  0  0  0  0  0  0  0  0  0  0  0
   10.0490   -0.5620   -1.0590 C   0  0  0  0  0  0  0  0  0  0  0  0
   -3.8350   -4.4110    0.0930 C   0  0  0  0  0  0  0  0  0  0  0  0
   -3.7370   -2.9520   -0.4050 C   0  0  0  0  0  0  0  0  0  0  0  0
   -4.9540    1.2380   -0.7950 C   0  0  1  0  0  0  0  0  0  0  0  0
   11.2410   -0.6190   -1.6920 F   0  0  0  0  0  0  0  0  0  0  0  0
    0.5920    0.8800    0.1340 N   0  0  0  0  0  0  0  0  0  0  0  0
   -3.0230    0.4870    0.5040 N   0  0  0  0  0  0  0  0  0  0  0  0
   -4.8350   -4.3920    1.1670 N   0  0  0  0  0  0  0  0  0  0  0  0
    6.4080   -0.3820    0.8750 O   0  0  0  0  0  0  0  0  0  0  0  0
    2.8790    0.4200    0.1780 O   0  0  0  0  0  0  0  0  0  0  0  0
   -5.8190   -2.8430    2.5000 O   0  0  0  0  0  0  0  0  0  0  0  0
   -4.1000    2.2040   -1.4100 O   0  0  0  0  0  0  0  0  0  0  0  0
   -1.6880    0.7680   -1.2450 O   0  0  0  0  0  0  0  0  0  0  0  0
    1.6490    0.3920    2.0250 O   0  0  0  0  0  0  0  0  0  0  0  0
    4.3390   -0.7570   -1.7230 H   0  0  0  0  0  0  0  0  0  0  0  0
    5.9820   -1.3810   -1.4440 H   0  0  0  0  0  0  0  0  0  0  0  0
    4.6170   -2.0110   -0.4910 H   0  0  0  0  0  0  0  0  0  0  0  0
    5.4920    2.1020    0.1250 H   0  0  0  0  0  0  0  0  0  0  0  0
    6.4910    1.2830   -1.1000 H   0  0  0  0  0  0  0  0  0  0  0  0
    4.7400    1.4710   -1.3590 H   0  0  0  0  0  0  0  0  0  0  0  0
    3.8610   -0.8820    1.4790 H   0  0  0  0  0  0  0  0  0  0  0  0
    4.2030    0.8460    1.7330 H   0  0  0  0  0  0  0  0  0  0  0  0
   -0.6960    0.5310    1.7520 H   0  0  0  0  0  0  0  0  0  0  0  0
    0.1460    2.8940    1.7990 H   0  0  0  0  0  0  0  0  0  0  0  0
   -0.7850    3.2230    0.3180 H   0  0  0  0  0  0  0  0  0  0  0  0
   -2.8690    2.5190    1.5230 H   0  0  0  0  0  0  0  0  0  0  0  0
   -1.0390    2.4990    3.9640 H   0  0  0  0  0  0  0  0  0  0  0  0
   -2.7970    2.2230    3.9580 H   0  0  0  0  0  0  0  0  0  0  0  0
   -1.7090    1.0460    3.1840 H   0  0  0  0  0  0  0  0  0  0  0  0
   -2.2080    4.9070    1.4110 H   0  0  0  0  0  0  0  0  0  0  0  0
   -3.0190    4.5400    2.9520 H   0  0  0  0  0  0  0  0  0  0  0  0
   -1.2480    4.7110    2.8970 H   0  0  0  0  0  0  0  0  0  0  0  0
   -3.7180   -0.4740   -1.2260 H   0  0  0  0  0  0  0  0  0  0  0  0
   -5.3910   -0.4400    1.3270 H   0  0  0  0  0  0  0  0  0  0  0  0
   -5.8460   -1.2510   -0.1900 H   0  0  0  0  0  0  0  0  0  0  0  0
   -3.3270   -1.8600    1.4390 H   0  0  0  0  0  0  0  0  0  0  0  0
    6.7670   -0.1090   -1.7050 H   0  0  0  0  0  0  0  0  0  0  0  0
    8.9400   -0.2130   -2.8560 H   0  0  0  0  0  0  0  0  0  0  0  0
    8.7190   -0.7940    2.0340 H   0  0  0  0  0  0  0  0  0  0  0  0
   10.8910   -0.8980    0.8790 H   0  0  0  0  0  0  0  0  0  0  0  0
   -4.1640   -5.0640   -0.7160 H   0  0  0  0  0  0  0  0  0  0  0  0
   -2.8720   -4.7440    0.4780 H   0  0  0  0  0  0  0  0  0  0  0  0
   -4.4130   -2.7790   -1.2420 H   0  0  0  0  0  0  0  0  0  0  0  0
   -2.7120   -2.7000   -0.6750 H   0  0  0  0  0  0  0  0  0  0  0  0
   -5.4420    1.6830    0.0720 H   0  0  0  0  0  0  0  0  0  0  0  0
    0.6210    0.9410   -0.8330 H   0  0  0  0  0  0  0  0  0  0  0  0
   -3.1550    0.5730    1.4610 H   0  0  0  0  0  0  0  0  0  0  0  0
   -5.2830   -5.1800    1.5120 H   0  0  0  0  0  0  0  0  0  0  0  0
   -3.4010    2.5370   -0.8290 H   0  0  0  0  0  0  0  0  0  0  0  0
   -7.0230    1.7940   -2.3850 O   0  0  0  0  0  0  0  0  0  0  0  0
   -5.6440   -0.1820   -2.9460 O   0  0  0  0  0  0  0  0  0  0  0  0
   -7.1480   -0.1860   -1.1740 O   0  0  0  0  0  0  0  0  0  0  0  0
   -7.8830   -0.5530   -1.6850 H   0  0  0  0  0  0  0  0  0  0  0  0
 17 32  2  0  0  0  0
  2  4  1  0  0  0  0
  2  3  1  0  0  0  0
 17 29  1  0  0  0  0
 16 17  1  0  0  0  0
  2  5  1  0  0  0  0
  2 30  1  0  0  0  0
 23 29  1  0  0  0  0
  6 35  2  0  0  0  0
 18 19  2  0  0  0  0
 19 22  1  0  0  0  0
  1 18  1  0  0  0  0
  5 31  1  0  0  0  0
 15 16  1  0  0  0  0
 16 24  1  0  0  0  0
  1 30  1  0  0  0  0
  6 31  1  0  0  0  0
  1 20  2  0  0  0  0
 22 26  1  0  0  0  0
 21 22  2  0  0  0  0
  6 27  1  0  0  0  0
 23 24  1  0  0  0  0
 14 15  1  0  0  0  0
  9 11  1  0  0  0  0
 20 21  1  0  0  0  0
 13 25  1  0  0  0  0
  7 27  1  0  0  0  0
 14 28  1  0  0  0  0
 12 28  1  0  0  0  0
  7 12  1  0  0  0  0
  7  8  1  0  0  0  0
 14 25  1  0  0  0  0
  8  9  1  0  0  0  0
  9 10  1  0  0  0  0
 12 34  2  0  0  0  0
 25 33  1  0  0  0  0
  3 36  1  0  0  0  0
  3 37  1  0  0  0  0
  3 38  1  0  0  0  0
  4 39  1  0  0  0  0
  4 40  1  0  0  0  0
  4 41  1  0  0  0  0
  5 42  1  0  0  0  0
  5 43  1  0  0  0  0
  7 44  1  0  0  0  0
  8 45  1  0  0  0  0
  8 46  1  0  0  0  0
  9 47  1  0  0  0  0
 10 48  1  0  0  0  0
 10 49  1  0  0  0  0
 10 50  1  0  0  0  0
 11 51  1  0  0  0  0
 11 52  1  0  0  0  0
 11 53  1  0  0  0  0
 14 54  1  0  0  0  0
 15 55  1  0  0  0  0
 15 56  1  0  0  0  0
 16 57  1  0  0  0  0
 18 58  1  0  0  0  0
 19 59  1  0  0  0  0
 20 60  1  0  0  0  0
 21 61  1  0  0  0  0
 23 62  1  0  0  0  0
 23 63  1  0  0  0  0
 24 64  1  0  0  0  0
 24 65  1  0  0  0  0
 25 66  1  0  0  0  0
 27 67  1  0  0  0  0
 28 68  1  0  0  0  0
 29 69  1  0  0  0  0
 33 70  1  0  0  0  0
 13 71  2  0  0  0  0
 13 72  2  0  0  0  0
 13 73  1  0  0  0  0
 73 74  1  0  0  0  0
M  END
> <OPENEYE_ISO_SMILES>
CC(C)C[C@@H](C(=O)N[C@@H](C[C@@H]1CCNC1=O)[C@@H](O)S(=O)(=O)O)NC(=O)OCC(C)(C)Oc2ccc(cc2)F

> <OPENEYE_INCHI>
InChI=1S/C24H36FN3O9S/c1-14(2)11-18(28-23(32)36-13-24(3,4)37-17-7-5-16(25)6-8-17)21(30)27-19(22(31)38(33,34)35)12-15-9-10-26-20(15)29/h5-8,14-15,18-19,22,31H,9-13H2,1-4H3,(H,26,29)(H,27,30)(H,28,32)(H,33,34,35)/t15-,18-,19-,22-/m0/s1

> <OPENEYE_INCHIKEY>
QTWROJFQZPJPGQ-BCSOYYNPSA-N

> <FORMULA>
C24H36FN3O9S

$$$$
