@<TRIPOS>MOLECULE
/home/pku/3cl/gett_pdb/5SPF/5SPF_mol2/ligand/5SPF_RYQ.pdb
 29 31 0 0 0
SMALL
GASTEIGER

@<TRIPOS>ATOM
      1  C16      -45.7650  -29.4180    3.8330 C.ar  201  RYQ201      0.2307
      2  C17      -43.1480  -27.6110    0.9670 C.ar  201  RYQ201      0.0004
      3  C13      -44.8510  -29.6210    5.8910 C.cat 201  RYQ201      0.4052
      4  C10      -47.1100  -29.3310    5.7840 C.3   201  RYQ201      0.2799
      5  C01      -45.3770  -25.5150   -1.4400 C.3   201  RYQ201     -0.0159
      6  C02      -44.6510  -26.4090   -0.4600 C.ar  201  RYQ201      0.0756
      7  C04      -44.4080  -28.2390    0.8950 C.ar  201  RYQ201      0.0684
      8  C05      -44.8440  -29.5120    1.5520 C.3   201  RYQ201      0.0697
      9  C07      -47.2350  -29.1750    2.2390 C.ar  201  RYQ201      0.0993
     10  C09      -47.0160  -29.2800    4.3820 C.ar  201  RYQ201      0.1635
     11  N03      -45.2970  -27.5220    0.0320 N.ar  201  RYQ201     -0.2474
     12  N06      -45.9170  -29.3500    2.5030 N.ar  201  RYQ201     -0.2974
     13  N08      -47.9170  -29.1290    3.3850 N.ar  201  RYQ201     -0.2316
     14  N11      -48.3540  -29.1830    6.4780 N.3   201  RYQ201     -0.2837
     15  N12      -46.0180  -29.5100    6.4820 N.2   201  RYQ201     -0.0788
     16  N14      -43.7160  -29.8260    6.7160 N.pl3 201  RYQ201     -0.2488
     17  N15      -44.6530  -29.5830    4.6020 N.pl3 201  RYQ201     -0.0208
     18  S18      -43.0810  -26.2460    0.0860 S.2   201  RYQ201     -0.0805
     19 H171      -42.3510  -27.9610    1.5760 H     201  RYQ201      0.0712
     20 H011      -46.3840  -25.3440   -1.0930 H     201  RYQ201      0.0298
     21 H012      -45.4280  -26.0250   -2.4170 H     201  RYQ201      0.0298
     22 H013      -44.8340  -24.5980   -1.5520 H     201  RYQ201      0.0298
     23 H052      -44.0070  -29.9310    2.0730 H     201  RYQ201      0.0558
     24 H051      -45.1750  -30.2040    0.7740 H     201  RYQ201      0.0558
     25 H071      -47.6900  -29.0570    1.2670 H     201  RYQ201      0.1030
     26 H111      -48.9090  -29.9850    6.6700 H     201  RYQ201      0.1223
     27 H112      -48.6480  -28.2710    6.7630 H     201  RYQ201      0.1223
     28 H142      -43.1690  -29.0550    7.0120 H     201  RYQ201      0.2413
     29 H141      -43.4370  -30.7680    6.9420 H     201  RYQ201      0.2413
@<TRIPOS>BOND
     1    21     5    1
     2    22     5    1
     3     5    20    1
     4     5     6    1
     5     6    11   ar
     6     6    18   ar
     7    11     7   ar
     8    18     2   ar
     9    24     8    1
    10     7     2   ar
    11     7     8    1
    12     2    19    1
    13    25     9    1
    14     8    23    1
    15     8    12    1
    16     9    12   ar
    17     9    13   ar
    18    12     1   ar
    19    13    10   ar
    20     1    10   ar
    21     1    17    1
    22    10     4    1
    23    17     3    1
    24     4    14    1
    25     4    15    1
    26     3    15    2
    27     3    16    1
    28    14    26    1
    29    14    27    1
    30    16    29    1
    31    16    28    1
