U0S
  -OEChem-02242320043D

 30 32  0     1  0  0  0  0  0999 V2000
    3.8430    1.0830    0.4460 C   0  0  0  0  0  0  0  0  0  0  0  0
    0.6130    0.4550   -0.1320 C   0  0  0  0  0  0  0  0  0  0  0  0
   -4.1920    0.7460    0.1440 C   0  0  0  0  0  0  0  0  0  0  0  0
   -3.1140    1.5970    0.2910 C   0  0  0  0  0  0  0  0  0  0  0  0
   -1.6870   -0.1190   -0.2390 C   0  0  0  0  0  0  0  0  0  0  0  0
   -0.0820   -1.7030    0.4940 C   0  0  0  0  0  0  0  0  0  0  0  0
    1.4640   -1.7400    0.5510 C   0  0  0  0  0  0  0  0  0  0  0  0
    1.8970   -0.3290    0.1480 C   0  0  2  0  0  0  0  0  0  0  0  0
    2.7450    0.3400    1.2380 C   0  0  0  0  0  0  0  0  0  0  0  0
    2.8270   -0.3480   -1.0740 C   0  0  0  0  0  0  0  0  0  0  0  0
   -2.7780   -0.9730   -0.3910 C   0  0  0  0  0  0  0  0  0  0  0  0
   -1.8840    1.1490    0.0970 N   0  0  0  0  0  0  0  0  0  0  0  0
   -0.3970   -0.5930   -0.4440 N   0  0  2  0  0  0  0  0  0  0  0  0
   -4.0000   -0.5200   -0.1910 N   0  0  0  0  0  0  0  0  0  0  0  0
    3.5660    0.8890   -0.9520 O   0  0  0  0  0  0  0  0  0  0  0  0
    3.8160    2.1470    0.6850 H   0  0  0  0  0  0  0  0  0  0  0  0
    4.8210    0.6720    0.6930 H   0  0  0  0  0  0  0  0  0  0  0  0
    0.3130    1.0230    0.7490 H   0  0  0  0  0  0  0  0  0  0  0  0
    0.7510    1.1210   -0.9840 H   0  0  0  0  0  0  0  0  0  0  0  0
   -5.1940    1.1130    0.3080 H   0  0  0  0  0  0  0  0  0  0  0  0
   -3.2750    2.6290    0.5640 H   0  0  0  0  0  0  0  0  0  0  0  0
   -0.4700   -2.6460    0.1110 H   0  0  0  0  0  0  0  0  0  0  0  0
   -0.4950   -1.4950    1.4810 H   0  0  0  0  0  0  0  0  0  0  0  0
    1.8020   -1.9670    1.5620 H   0  0  0  0  0  0  0  0  0  0  0  0
    1.8540   -2.4750   -0.1530 H   0  0  0  0  0  0  0  0  0  0  0  0
    3.1880   -0.4100    1.8930 H   0  0  0  0  0  0  0  0  0  0  0  0
    2.1440    1.0440    1.8120 H   0  0  0  0  0  0  0  0  0  0  0  0
    3.5000   -1.2040   -1.0310 H   0  0  0  0  0  0  0  0  0  0  0  0
    2.2470   -0.3600   -1.9970 H   0  0  0  0  0  0  0  0  0  0  0  0
   -2.6220   -2.0060   -0.6650 H   0  0  0  0  0  0  0  0  0  0  0  0
  3  4  2  0  0  0  0
  4 12  1  0  0  0  0
  5 12  2  0  0  0  0
  6 13  1  0  0  0  0
  6  7  1  0  0  0  0
  7  8  1  0  0  0  0
  1  9  1  0  0  0  0
  1 15  1  0  0  0  0
 10 15  1  0  0  0  0
  8  9  1  0  0  0  0
  2  8  1  0  0  0  0
  5 13  1  0  0  0  0
  5 11  1  0  0  0  0
 11 14  2  0  0  0  0
  3 14  1  0  0  0  0
  2 13  1  0  0  0  0
  8 10  1  0  0  0  0
  1 16  1  0  0  0  0
  1 17  1  0  0  0  0
  2 18  1  0  0  0  0
  2 19  1  0  0  0  0
  3 20  1  0  0  0  0
  4 21  1  0  0  0  0
  6 22  1  0  0  0  0
  6 23  1  0  0  0  0
  7 24  1  0  0  0  0
  7 25  1  0  0  0  0
  9 26  1  0  0  0  0
  9 27  1  0  0  0  0
 10 28  1  0  0  0  0
 10 29  1  0  0  0  0
 11 30  1  0  0  0  0
M  END
> <OPENEYE_ISO_SMILES>
c1cnc(cn1)[N@@]2CC[C@@]3(C2)CCOC3

> <OPENEYE_INCHI>
InChI=1S/C11H15N3O/c1-5-14(10-7-12-3-4-13-10)8-11(1)2-6-15-9-11/h3-4,7H,1-2,5-6,8-9H2/t11-/m0/s1

> <OPENEYE_INCHIKEY>
ITTBXBSSJHVWJS-NSHDSACASA-N

> <FORMULA>
C11H15N3O

$$$$
