@<TRIPOS>MOLECULE
/home/pku/3cl/gett_pdb/5RVT/5RVT_mol2/ligand/5RVT_4BL.pdb
 21 22 0 0 0
SMALL
GASTEIGER

@<TRIPOS>ATOM
      1  C1        10.7790    1.8790   19.0210 C.ar  201  4BL201      0.0729
      2  N2        10.8590    2.6720   20.0710 N.ar  201  4BL201     -0.3526
      3  C3        10.1760    2.5560   17.9770 C.ar  201  4BL201     -0.0267
      4  C4        10.3330    3.8670   19.7800 C.ar  201  4BL201      0.0472
      5  C5        11.2770    0.4400   18.9640 C.2   201  4BL201      0.1352
      6  C6         9.8920    3.8350   18.4830 C.ar  201  4BL201      0.0003
      7  C7        10.1780    5.0310   20.5400 C.ar  201  4BL201     -0.0349
      8  O8        11.6960   -0.1190   20.0100 O.co2 201  4BL201     -0.3021
      9  C9         9.2930    4.9600   17.9180 C.ar  201  4BL201     -0.0523
     10  O10       11.2760   -0.1860   17.8750 O.co2 201  4BL201     -0.8431
     11  C11        9.5800    6.1470   19.9800 C.ar  201  4BL201     -0.0485
     12  C12        9.1400    6.1110   18.6670 C.ar  201  4BL201     -0.0582
     13  C13        9.4090    7.4270   20.7900 C.3   201  4BL201     -0.0396
     14  H3         9.9940    2.2330   17.1240 H     201  4BL201      0.0645
     15  H7        10.4750    5.0550   21.4210 H     201  4BL201      0.0641
     16  H9         8.9960    4.9360   17.0370 H     201  4BL201      0.0624
     17  H12        8.7410    6.8610   18.2900 H     201  4BL201      0.0620
     18  H13        8.5060    7.7630   20.6770 H     201  4BL201      0.0278
     19 H13A       10.0430    8.0930   20.4810 H     201  4BL201      0.0278
     20 H13B        9.5690    7.2400   21.7280 H     201  4BL201      0.0278
     21  HN2       11.2020    2.4550   20.8290 H     201  4BL201      0.1660
@<TRIPOS>UNITY_ATOM_ATTR
10 1
charge -1
@<TRIPOS>BOND
     1    16     9    1
     2    14     3    1
     3    10     5   ar
     4     9     6   ar
     5     9    12   ar
     6     3     6   ar
     7     3     1   ar
     8    17    12    1
     9     6     4   ar
    10    12    11   ar
    11     5     1    1
    12     5     8   ar
    13     1     2   ar
    14     4     2   ar
    15     4     7   ar
    16    11     7   ar
    17    11    13    1
    18     2    21    1
    19    19    13    1
    20     7    15    1
    21    18    13    1
    22    13    20    1
