QKC
  -OEChem-02242320033D

 41 44  0     1  0  0  0  0  0999 V2000
   -1.4790   -1.4110    0.2760 C   0  0  0  0  0  0  0  0  0  0  0  0
   -2.3380   -2.4880    0.2710 C   0  0  0  0  0  0  0  0  0  0  0  0
   -3.6920   -2.3000    0.0270 C   0  0  0  0  0  0  0  0  0  0  0  0
   -4.1920   -1.0360   -0.2130 C   0  0  0  0  0  0  0  0  0  0  0  0
   -3.3390    0.0620   -0.2120 C   0  0  0  0  0  0  0  0  0  0  0  0
   -1.9720   -0.1300    0.0400 C   0  0  0  0  0  0  0  0  0  0  0  0
   -1.3500    1.2020   -0.0270 C   0  0  0  0  0  0  0  0  0  0  0  0
   -2.3790    2.1110   -0.3150 C   0  0  0  0  0  0  0  0  0  0  0  0
    4.4740   -2.1110   -0.3470 C   0  0  0  0  0  0  0  0  0  0  0  0
    3.4130    0.4230    0.2840 C   0  0  2  0  0  0  0  0  0  0  0  0
    3.4040   -0.0770    1.7310 C   0  0  0  0  0  0  0  0  0  0  0  0
    2.0310   -0.6760    2.0480 C   0  0  0  0  0  0  0  0  0  0  0  0
    0.9510    0.3820    1.8090 C   0  0  0  0  0  0  0  0  0  0  0  0
   -0.0460    1.6860    0.1270 C   0  0  0  0  0  0  0  0  0  0  0  0
   -0.8310    3.8160   -0.2770 C   0  0  0  0  0  0  0  0  0  0  0  0
    2.2930    1.4480    0.0960 C   0  0  0  0  0  0  0  0  0  0  0  0
   -4.5260   -3.3630    0.0250 F   0  0  0  0  0  0  0  0  0  0  0  0
    1.0000    0.8260    0.4110 N   0  0  1  0  0  0  0  0  0  0  0  0
   -3.5580    1.4140   -0.4170 N   0  0  0  0  0  0  0  0  0  0  0  0
   -2.0710    3.4030   -0.4300 N   0  0  0  0  0  0  0  0  0  0  0  0
    0.1640    2.9940   -0.0060 N   0  0  0  0  0  0  0  0  0  0  0  0
    3.3970   -0.5410   -2.1710 O   0  0  0  0  0  0  0  0  0  0  0  0
    1.8980   -1.5770   -0.5300 O   0  0  0  0  0  0  0  0  0  0  0  0
    3.1480   -0.9760   -0.8410 S   0  0  0  0  0  0  0  0  0  0  0  0
   -0.4260   -1.5600    0.4660 H   0  0  0  0  0  0  0  0  0  0  0  0
   -1.9570   -3.4810    0.4580 H   0  0  0  0  0  0  0  0  0  0  0  0
   -5.2470   -0.9000   -0.4010 H   0  0  0  0  0  0  0  0  0  0  0  0
    4.3520   -2.3770    0.7030 H   0  0  0  0  0  0  0  0  0  0  0  0
    4.4270   -3.0120   -0.9580 H   0  0  0  0  0  0  0  0  0  0  0  0
    5.4390   -1.6250   -0.4880 H   0  0  0  0  0  0  0  0  0  0  0  0
    4.3740    0.8890    0.0650 H   0  0  0  0  0  0  0  0  0  0  0  0
    4.1730   -0.8390    1.8580 H   0  0  0  0  0  0  0  0  0  0  0  0
    3.6030    0.7570    2.4050 H   0  0  0  0  0  0  0  0  0  0  0  0
    1.8500   -1.5330    1.4000 H   0  0  0  0  0  0  0  0  0  0  0  0
    2.0050   -0.9950    3.0900 H   0  0  0  0  0  0  0  0  0  0  0  0
   -0.0290   -0.0460    2.0200 H   0  0  0  0  0  0  0  0  0  0  0  0
    1.1250    1.2330    2.4670 H   0  0  0  0  0  0  0  0  0  0  0  0
   -0.6200    4.8710   -0.3780 H   0  0  0  0  0  0  0  0  0  0  0  0
    2.4600    2.2950    0.7620 H   0  0  0  0  0  0  0  0  0  0  0  0
    2.2870    1.7950   -0.9370 H   0  0  0  0  0  0  0  0  0  0  0  0
   -4.4220    1.8110   -0.6110 H   0  0  0  0  0  0  0  0  0  0  0  0
  9 24  1  0  0  0  0
 22 24  2  0  0  0  0
 10 11  1  0  0  0  0
 11 12  1  0  0  0  0
 12 13  1  0  0  0  0
 13 18  1  0  0  0  0
  7 14  2  0  0  0  0
  6  7  1  0  0  0  0
  5  6  2  0  0  0  0
  3  4  2  0  0  0  0
  1  2  2  0  0  0  0
  2  3  1  0  0  0  0
  3 17  1  0  0  0  0
  4  5  1  0  0  0  0
  5 19  1  0  0  0  0
  8 19  1  0  0  0  0
  8 20  2  0  0  0  0
 15 20  1  0  0  0  0
 15 21  2  0  0  0  0
 14 18  1  0  0  0  0
 16 18  1  0  0  0  0
 10 24  1  0  0  0  0
 23 24  2  0  0  0  0
 10 16  1  0  0  0  0
 14 21  1  0  0  0  0
  7  8  1  0  0  0  0
  1  6  1  0  0  0  0
  1 25  1  0  0  0  0
  2 26  1  0  0  0  0
  4 27  1  0  0  0  0
  9 28  1  0  0  0  0
  9 29  1  0  0  0  0
  9 30  1  0  0  0  0
 10 31  1  0  0  0  0
 11 32  1  0  0  0  0
 11 33  1  0  0  0  0
 12 34  1  0  0  0  0
 12 35  1  0  0  0  0
 13 36  1  0  0  0  0
 13 37  1  0  0  0  0
 15 38  1  0  0  0  0
 16 39  1  0  0  0  0
 16 40  1  0  0  0  0
 19 41  1  0  0  0  0
M  END
> <OPENEYE_ISO_SMILES>
CS(=O)(=O)[C@@H]1CCC[N@](C1)c2c3c4ccc(cc4[nH]c3ncn2)F

> <OPENEYE_INCHI>
InChI=1S/C16H17FN4O2S/c1-24(22,23)11-3-2-6-21(8-11)16-14-12-5-4-10(17)7-13(12)20-15(14)18-9-19-16/h4-5,7,9,11H,2-3,6,8H2,1H3,(H,18,19,20)/t11-/m1/s1

> <OPENEYE_INCHIKEY>
VROCEIAKWXKTQX-LLVKDONJSA-N

> <FORMULA>
C16H17FN4O2S

$$$$
