CFF
  -OEChem-02242320023D

 24 25  0     0  0  0  0  0  0999 V2000
    1.0470   -0.0000   -1.3120 N   0  0  0  0  0  0  0  0  0  0  0  0
   -0.2080   -0.0000   -1.7900 C   0  0  0  0  0  0  0  0  0  0  0  0
    2.1760    0.0000   -2.2460 C   0  0  0  0  0  0  0  0  0  0  0  0
    1.2850   -0.0010    0.0160 C   0  0  0  0  0  0  0  0  0  0  0  0
   -1.2760   -0.0000   -0.9710 N   0  0  0  0  0  0  0  0  0  0  0  0
   -0.3840    0.0000   -2.9930 O   0  0  0  0  0  0  0  0  0  0  0  0
   -2.6290   -0.0000   -1.5330 C   0  0  0  0  0  0  0  0  0  0  0  0
   -1.0980   -0.0000    0.4020 C   0  0  0  0  0  0  0  0  0  0  0  0
    0.1930    0.0050    0.9110 C   0  0  0  0  0  0  0  0  0  0  0  0
   -1.9340   -0.0000    1.4440 N   0  0  0  0  0  0  0  0  0  0  0  0
    2.4280   -0.0000    0.4370 O   0  0  0  0  0  0  0  0  0  0  0  0
    0.0680   -0.0000    2.2860 N   0  0  0  0  0  0  0  0  0  0  0  0
   -1.2510   -0.0000    2.5600 C   0  0  0  0  0  0  0  0  0  0  0  0
    1.1610   -0.0000    3.2610 C   0  0  0  0  0  0  0  0  0  0  0  0
    1.8000    0.0010   -3.2690 H   0  0  0  0  0  0  0  0  0  0  0  0
    2.7830    0.8900   -2.0820 H   0  0  0  0  0  0  0  0  0  0  0  0
    2.7830   -0.8890   -2.0830 H   0  0  0  0  0  0  0  0  0  0  0  0
   -2.5700   -0.0000   -2.6220 H   0  0  0  0  0  0  0  0  0  0  0  0
   -3.1620   -0.8900   -1.1980 H   0  0  0  0  0  0  0  0  0  0  0  0
   -3.1620    0.8890   -1.1980 H   0  0  0  0  0  0  0  0  0  0  0  0
   -1.6790    0.0000    3.5520 H   0  0  0  0  0  0  0  0  0  0  0  0
    1.4320   -1.0280    3.5030 H   0  0  0  0  0  0  0  0  0  0  0  0
    2.0240    0.5130    2.8390 H   0  0  0  0  0  0  0  0  0  0  0  0
    0.8390    0.5130    4.1670 H   0  0  0  0  0  0  0  0  0  0  0  0
  1  2  1  0  0  0  0
  1  3  1  0  0  0  0
  1  4  1  0  0  0  0
  2  5  1  0  0  0  0
  2  6  2  0  0  0  0
  3 15  1  0  0  0  0
  3 16  1  0  0  0  0
  3 17  1  0  0  0  0
  4  9  1  0  0  0  0
  4 11  2  0  0  0  0
  5  7  1  0  0  0  0
  5  8  1  0  0  0  0
  7 18  1  0  0  0  0
  7 19  1  0  0  0  0
  7 20  1  0  0  0  0
  8  9  2  0  0  0  0
  8 10  1  0  0  0  0
  9 12  1  0  0  0  0
 10 13  2  0  0  0  0
 12 13  1  0  0  0  0
 12 14  1  0  0  0  0
 13 21  1  0  0  0  0
 14 22  1  0  0  0  0
 14 23  1  0  0  0  0
 14 24  1  0  0  0  0
M  END
> <OPENEYE_ISO_SMILES>
Cn1cnc2c1c(=O)n(c(=O)n2C)C

> <OPENEYE_INCHI>
InChI=1S/C8H10N4O2/c1-10-4-9-6-5(10)7(13)12(3)8(14)11(6)2/h4H,1-3H3

> <OPENEYE_INCHIKEY>
RYYVLZVUVIJVGH-UHFFFAOYSA-N

> <FORMULA>
C8H10N4O2

$$$$
