GXU
  -OEChem-02242320023D

 46 49  0     0  0  0  0  0  0999 V2000
   -1.0400   -0.1180    1.2130 N   0  3  0  0  0  0  0  0  0  0  0  0
   -3.9950   -2.7130   -1.2050 N   0  0  0  0  0  0  0  0  0  0  0  0
    0.9350    0.6120    0.5870 C   0  0  0  0  0  0  0  0  0  0  0  0
   -1.0560    1.1860    1.2920 C   0  0  0  0  0  0  0  0  0  0  0  0
   -2.1630   -1.0000    1.5400 C   0  0  0  0  0  0  0  0  0  0  0  0
    2.3220    0.5020    0.1150 C   0  0  0  0  0  0  0  0  0  0  0  0
    0.7320   -1.8620    0.5100 C   0  0  0  0  0  0  0  0  0  0  0  0
    2.9040   -0.8310   -0.1600 C   0  0  0  0  0  0  0  0  0  0  0  0
    2.1270   -1.9860    0.0330 C   0  0  0  0  0  0  0  0  0  0  0  0
   -2.2350    2.0140    1.7350 C   0  0  0  0  0  0  0  0  0  0  0  0
    0.1970    3.6650   -0.5070 C   0  0  0  0  0  0  0  0  0  0  0  0
   -3.0000   -1.2260    0.3080 C   0  0  0  0  0  0  0  0  0  0  0  0
    2.6750   -3.2370   -0.2250 C   0  0  0  0  0  0  0  0  0  0  0  0
    4.7470   -2.2030   -0.8600 C   0  0  0  0  0  0  0  0  0  0  0  0
    3.9830   -3.3380   -0.6700 C   0  0  0  0  0  0  0  0  0  0  0  0
   -3.2610   -2.5140   -0.1250 C   0  0  0  0  0  0  0  0  0  0  0  0
    0.1640   -0.5240    0.7800 C   0  0  0  0  0  0  0  0  0  0  0  0
    0.5230    3.0920    0.8730 C   0  0  0  0  0  0  0  0  0  0  0  0
    4.2150   -0.9490   -0.6080 C   0  0  0  0  0  0  0  0  0  0  0  0
    0.3060    5.6780   -1.8040 C   0  0  0  0  0  0  0  0  0  0  0  0
   -4.2190   -0.3920   -1.4410 C   0  0  0  0  0  0  0  0  0  0  0  0
   -4.4800   -1.6800   -1.8730 C   0  0  0  0  0  0  0  0  0  0  0  0
    0.1410    1.6780    0.9180 N   0  0  0  0  0  0  0  0  0  0  0  0
   -3.4850   -0.1940   -0.3600 N   0  0  0  0  0  0  0  0  0  0  0  0
    2.9890    1.5050   -0.0510 O   0  0  0  0  0  0  0  0  0  0  0  0
    0.0550   -2.8560    0.6790 O   0  0  0  0  0  0  0  0  0  0  0  0
    0.5700    5.0430   -0.5510 O   0  0  0  0  0  0  0  0  0  0  0  0
   -1.7820   -1.9550    1.9010 H   0  0  0  0  0  0  0  0  0  0  0  0
   -2.7750   -0.5370    2.3150 H   0  0  0  0  0  0  0  0  0  0  0  0
   -2.1930    2.1590    2.8140 H   0  0  0  0  0  0  0  0  0  0  0  0
   -2.2050    2.9830    1.2370 H   0  0  0  0  0  0  0  0  0  0  0  0
   -3.1590    1.4990    1.4730 H   0  0  0  0  0  0  0  0  0  0  0  0
    0.7500    3.1150   -1.2690 H   0  0  0  0  0  0  0  0  0  0  0  0
   -0.8720    3.5710   -0.6970 H   0  0  0  0  0  0  0  0  0  0  0  0
    2.0830   -4.1280   -0.0780 H   0  0  0  0  0  0  0  0  0  0  0  0
    5.7660   -2.2930   -1.2070 H   0  0  0  0  0  0  0  0  0  0  0  0
    4.4080   -4.3110   -0.8700 H   0  0  0  0  0  0  0  0  0  0  0  0
   -2.8650   -3.3580    0.4210 H   0  0  0  0  0  0  0  0  0  0  0  0
    1.5920    3.1850    1.0620 H   0  0  0  0  0  0  0  0  0  0  0  0
   -0.0300    3.6420    1.6350 H   0  0  0  0  0  0  0  0  0  0  0  0
    4.8170   -0.0650   -0.7580 H   0  0  0  0  0  0  0  0  0  0  0  0
    0.6170    6.7210   -1.7560 H   0  0  0  0  0  0  0  0  0  0  0  0
    0.8620    5.1690   -2.5920 H   0  0  0  0  0  0  0  0  0  0  0  0
   -0.7610    5.6260   -2.0200 H   0  0  0  0  0  0  0  0  0  0  0  0
   -4.6160    0.4510   -1.9870 H   0  0  0  0  0  0  0  0  0  0  0  0
   -5.0800   -1.8420   -2.7560 H   0  0  0  0  0  0  0  0  0  0  0  0
  6 25  2  0  0  0  0
 14 19  2  0  0  0  0
  8 19  1  0  0  0  0
 11 18  1  0  0  0  0
 18 23  1  0  0  0  0
 11 27  1  0  0  0  0
  6  8  1  0  0  0  0
  3  6  1  0  0  0  0
 14 15  1  0  0  0  0
  8  9  2  0  0  0  0
  3 23  1  0  0  0  0
  4 23  1  0  0  0  0
  3 17  2  0  0  0  0
 20 27  1  0  0  0  0
 13 15  2  0  0  0  0
  9 13  1  0  0  0  0
  7  9  1  0  0  0  0
  4 10  1  0  0  0  0
  1  4  2  0  0  0  0
  7 17  1  0  0  0  0
  1 17  1  0  0  0  0
  7 26  2  0  0  0  0
  1  5  1  0  0  0  0
  5 12  1  0  0  0  0
 12 24  2  0  0  0  0
 21 24  1  0  0  0  0
 12 16  1  0  0  0  0
 21 22  2  0  0  0  0
  2 16  2  0  0  0  0
  2 22  1  0  0  0  0
  5 28  1  0  0  0  0
  5 29  1  0  0  0  0
 10 30  1  0  0  0  0
 10 31  1  0  0  0  0
 10 32  1  0  0  0  0
 11 33  1  0  0  0  0
 11 34  1  0  0  0  0
 13 35  1  0  0  0  0
 14 36  1  0  0  0  0
 15 37  1  0  0  0  0
 16 38  1  0  0  0  0
 18 39  1  0  0  0  0
 18 40  1  0  0  0  0
 19 41  1  0  0  0  0
 20 42  1  0  0  0  0
 20 43  1  0  0  0  0
 20 44  1  0  0  0  0
 21 45  1  0  0  0  0
 22 46  1  0  0  0  0
M  CHG  1   1   1
M  END
> <OPENEYE_ISO_SMILES>
Cc1n(c2c([n+]1Cc3cnccn3)C(=O)c4ccccc4C2=O)CCOC

> <OPENEYE_INCHI>
InChI=1S/C20H19N4O3/c1-13-23(9-10-27-2)17-18(24(13)12-14-11-21-7-8-22-14)20(26)16-6-4-3-5-15(16)19(17)25/h3-8,11H,9-10,12H2,1-2H3/q+1

> <OPENEYE_INCHIKEY>
OTSOOHRUMBRSHZ-UHFFFAOYSA-N

> <FORMULA>
C20H19N4O3+

$$$$
