S4L
  -OEChem-02242320043D

 71 73  0     1  0  0  0  0  0999 V2000
    3.0910    0.8960   -0.9320 C   0  0  1  0  0  0  0  0  0  0  0  0
    4.2970    0.9610    0.0070 C   0  0  0  0  0  0  0  0  0  0  0  0
    3.9780    1.8860    1.1830 C   0  0  2  0  0  0  0  0  0  0  0  0
    3.7850    3.3400    0.6920 C   0  0  0  0  0  0  0  0  0  0  0  0
    4.4110    4.1490    1.8490 C   0  0  0  0  0  0  0  0  0  0  0  0
    5.1560    1.9640    2.1300 C   0  0  0  0  0  0  0  0  0  0  0  0
    3.4550    0.0820   -2.1750 C   0  0  1  0  0  0  0  0  0  0  0  0
   -1.4570   -2.3030    0.7630 C   0  0  0  0  0  0  0  0  0  0  0  0
   -2.5410   -4.4840    1.3210 C   0  0  0  0  0  0  0  0  0  0  0  0
   -2.2950   -4.2260    2.8090 C   0  0  0  0  0  0  0  0  0  0  0  0
   -2.3100   -2.7200    3.0740 C   0  0  0  0  0  0  0  0  0  0  0  0
   -1.7140    0.3660   -0.4640 N   0  0  0  0  0  0  0  0  0  0  0  0
   -2.8410    0.3430    0.2750 C   0  0  0  0  0  0  0  0  0  0  0  0
   -5.1740    0.7280    0.6020 C   0  0  0  0  0  0  0  0  0  0  0  0
   -6.3670    1.2550   -0.1520 C   0  0  0  0  0  0  0  0  0  0  0  0
   -6.6740    2.6030   -0.1050 C   0  0  0  0  0  0  0  0  0  0  0  0
   -7.7660    3.0880   -0.8000 C   0  0  0  0  0  0  0  0  0  0  0  0
   -7.1530    0.3930   -0.8940 C   0  0  0  0  0  0  0  0  0  0  0  0
   -0.4530   -0.1110    0.1080 C   0  0  1  0  0  0  0  0  0  0  0  0
   -0.3580   -1.6290   -0.0600 C   0  0  0  0  0  0  0  0  0  0  0  0
   -1.4420   -3.8100    0.4970 C   0  0  0  0  0  0  0  0  0  0  0  0
    0.7020    0.5460   -0.6020 C   0  0  0  0  0  0  0  0  0  0  0  0
   -1.2110   -2.0460    2.2510 C   0  0  0  0  0  0  0  0  0  0  0  0
   -8.5510    2.2250   -1.5430 C   0  0  0  0  0  0  0  0  0  0  0  0
   -8.2470    0.8770   -1.5850 C   0  0  0  0  0  0  0  0  0  0  0  0
    1.9680    0.2570   -0.2410 N   0  0  0  0  0  0  0  0  0  0  0  0
    5.3800    3.2450    2.4800 N   0  0  0  0  0  0  0  0  0  0  0  0
    0.4920    1.3360   -1.4980 O   0  0  0  0  0  0  0  0  0  0  0  0
    5.8020    1.0130    2.5140 O   0  0  0  0  0  0  0  0  0  0  0  0
    4.6220    0.6380   -2.7840 O   0  0  0  0  0  0  0  0  0  0  0  0
   -4.0000    0.7820   -0.2510 O   0  0  0  0  0  0  0  0  0  0  0  0
   -2.8110   -0.0730    1.4160 O   0  0  0  0  0  0  0  0  0  0  0  0
    2.8070    1.9060   -1.2300 H   0  0  0  0  0  0  0  0  0  0  0  0
    4.5200   -0.0380    0.3810 H   0  0  0  0  0  0  0  0  0  0  0  0
    5.1590    1.3480   -0.5360 H   0  0  0  0  0  0  0  0  0  0  0  0
    3.0880    1.5400    1.7090 H   0  0  0  0  0  0  0  0  0  0  0  0
    4.3240    3.5110   -0.2400 H   0  0  0  0  0  0  0  0  0  0  0  0
    2.7270    3.5760    0.5780 H   0  0  0  0  0  0  0  0  0  0  0  0
    4.9170    5.0330    1.4610 H   0  0  0  0  0  0  0  0  0  0  0  0
    2.6270    0.1090   -2.8830 H   0  0  0  0  0  0  0  0  0  0  0  0
   -2.4270   -1.8940    0.4790 H   0  0  0  0  0  0  0  0  0  0  0  0
   -2.5300   -5.5580    1.1310 H   0  0  0  0  0  0  0  0  0  0  0  0
   -3.5110   -4.0750    1.0370 H   0  0  0  0  0  0  0  0  0  0  0  0
   -3.0780   -4.7070    3.3950 H   0  0  0  0  0  0  0  0  0  0  0  0
   -1.3260   -4.6360    3.0930 H   0  0  0  0  0  0  0  0  0  0  0  0
   -3.2800   -2.3110    2.7900 H   0  0  0  0  0  0  0  0  0  0  0  0
   -2.1350   -2.5360    4.1340 H   0  0  0  0  0  0  0  0  0  0  0  0
   -1.7380    0.6980   -1.3750 H   0  0  0  0  0  0  0  0  0  0  0  0
   -5.0060    1.3380    1.4900 H   0  0  0  0  0  0  0  0  0  0  0  0
   -5.3590   -0.3040    0.9000 H   0  0  0  0  0  0  0  0  0  0  0  0
   -6.0600    3.2760    0.4750 H   0  0  0  0  0  0  0  0  0  0  0  0
   -8.0050    4.1400   -0.7640 H   0  0  0  0  0  0  0  0  0  0  0  0
   -6.9110   -0.6590   -0.9340 H   0  0  0  0  0  0  0  0  0  0  0  0
   -0.4180    0.1390    1.1690 H   0  0  0  0  0  0  0  0  0  0  0  0
    0.6170   -1.9730    0.2850 H   0  0  0  0  0  0  0  0  0  0  0  0
   -0.4830   -1.8860   -1.1120 H   0  0  0  0  0  0  0  0  0  0  0  0
   -1.6180   -3.9940   -0.5630 H   0  0  0  0  0  0  0  0  0  0  0  0
   -0.4730   -4.2190    0.7810 H   0  0  0  0  0  0  0  0  0  0  0  0
   -0.2420   -2.4550    2.5350 H   0  0  0  0  0  0  0  0  0  0  0  0
   -1.2220   -0.9720    2.4400 H   0  0  0  0  0  0  0  0  0  0  0  0
   -9.4040    2.6040   -2.0860 H   0  0  0  0  0  0  0  0  0  0  0  0
   -8.8610    0.2040   -2.1650 H   0  0  0  0  0  0  0  0  0  0  0  0
    2.1350   -0.3750    0.4760 H   0  0  0  0  0  0  0  0  0  0  0  0
    3.7840   -1.6370   -1.6960 S   0  0  0  0  0  0  0  0  0  0  0  0
    4.2540   -2.3060   -2.9800 O   0  0  0  0  0  0  0  0  0  0  0  0
    4.9100   -1.7070   -0.8320 O   0  0  0  0  0  0  0  0  0  0  0  0
    2.5720   -2.3060   -1.3760 O   0  0  0  0  0  0  0  0  0  0  0  0
    3.6430    4.4390    2.5650 H   0  0  0  0  0  0  0  0  0  0  0  0
    6.0900    3.5330    3.0750 H   0  0  0  0  0  0  0  0  0  0  0  0
    5.4000    0.6460   -2.2090 H   0  0  0  0  0  0  0  0  0  0  0  0
    4.4700   -3.2430   -2.8800 H   0  0  0  0  0  0  0  0  0  0  0  0
  6 27  1  0  0  0  0
  5 27  1  0  0  0  0
  6 29  2  0  0  0  0
  3  6  1  0  0  0  0
  4  5  1  0  0  0  0
  2  3  1  0  0  0  0
  1  2  1  0  0  0  0
  3  4  1  0  0  0  0
  7 30  1  0  0  0  0
  1  7  1  0  0  0  0
 17 24  2  0  0  0  0
 16 17  1  0  0  0  0
 24 25  1  0  0  0  0
  1 26  1  0  0  0  0
 15 16  2  0  0  0  0
 18 25  2  0  0  0  0
 22 26  1  0  0  0  0
 15 18  1  0  0  0  0
 14 15  1  0  0  0  0
 22 28  2  0  0  0  0
 19 22  1  0  0  0  0
 13 32  2  0  0  0  0
 14 31  1  0  0  0  0
 13 31  1  0  0  0  0
 12 13  1  0  0  0  0
 12 19  1  0  0  0  0
 19 20  1  0  0  0  0
  8 20  1  0  0  0  0
  8 23  1  0  0  0  0
 11 23  1  0  0  0  0
  8 21  1  0  0  0  0
  9 21  1  0  0  0  0
 10 11  1  0  0  0  0
  9 10  1  0  0  0  0
  1 33  1  0  0  0  0
  2 34  1  0  0  0  0
  2 35  1  0  0  0  0
  3 36  1  0  0  0  0
  4 37  1  0  0  0  0
  4 38  1  0  0  0  0
  5 39  1  0  0  0  0
  7 40  1  0  0  0  0
  8 41  1  0  0  0  0
  9 42  1  0  0  0  0
  9 43  1  0  0  0  0
 10 44  1  0  0  0  0
 10 45  1  0  0  0  0
 11 46  1  0  0  0  0
 11 47  1  0  0  0  0
 12 48  1  0  0  0  0
 14 49  1  0  0  0  0
 14 50  1  0  0  0  0
 16 51  1  0  0  0  0
 17 52  1  0  0  0  0
 18 53  1  0  0  0  0
 19 54  1  0  0  0  0
 20 55  1  0  0  0  0
 20 56  1  0  0  0  0
 21 57  1  0  0  0  0
 21 58  1  0  0  0  0
 23 59  1  0  0  0  0
 23 60  1  0  0  0  0
 24 61  1  0  0  0  0
 25 62  1  0  0  0  0
 26 63  1  0  0  0  0
  7 64  1  0  0  0  0
 64 65  1  0  0  0  0
 64 66  2  0  0  0  0
 64 67  2  0  0  0  0
  5 68  1  0  0  0  0
 27 69  1  0  0  0  0
 30 70  1  0  0  0  0
 65 71  1  0  0  0  0
M  END
> <OPENEYE_ISO_SMILES>
c1ccc(cc1)COC(=O)N[C@@H](CC2CCCCC2)C(=O)N[C@@H](C[C@@H]3CCNC3=O)[C@@H](O)S(=O)(=O)O

> <OPENEYE_INCHI>
InChI=1S/C24H35N3O8S/c28-21-18(11-12-25-21)14-20(23(30)36(32,33)34)26-22(29)19(13-16-7-3-1-4-8-16)27-24(31)35-15-17-9-5-2-6-10-17/h2,5-6,9-10,16,18-20,23,30H,1,3-4,7-8,11-15H2,(H,25,28)(H,26,29)(H,27,31)(H,32,33,34)/t18-,19-,20-,23-/m0/s1

> <OPENEYE_INCHIKEY>
JRFNCWJMGHZHFL-MXBUBSDBSA-N

> <FORMULA>
C24H35N3O8S

$$$$
