NB2
  -OEChem-02242320033D

102105  0     1  0  0  0  0  0999 V2000
    6.3280    0.4200   -0.9450 C   0  0  2  0  0  0  0  0  0  0  0  0
    1.6830   -1.9610   -1.7970 C   0  0  0  0  0  0  0  0  0  0  0  0
    2.4580   -3.2840   -1.6230 C   0  0  1  0  0  0  0  0  0  0  0  0
    3.4440   -3.0190   -0.4650 C   0  0  2  0  0  0  0  0  0  0  0  0
    0.8360   -0.5930    0.1700 C   0  0  0  0  0  0  0  0  0  0  0  0
   -0.4980   -0.3460   -0.4860 C   0  0  2  0  0  0  0  0  0  0  0  0
   -0.4080    0.8970   -1.3730 C   0  0  0  0  0  0  0  0  0  0  0  0
   -2.7860   -0.5400    0.3310 C   0  0  0  0  0  0  0  0  0  0  0  0
    7.0560   -0.3270   -2.0320 C   0  0  0  0  0  0  0  0  0  0  0  0
    2.3130   -4.0360   -0.2980 C   0  0  0  0  0  0  0  0  0  0  0  0
    2.6940   -5.5180   -0.2830 C   0  0  0  0  0  0  0  0  0  0  0  0
    1.1430   -3.6480    0.6090 C   0  0  0  0  0  0  0  0  0  0  0  0
   -5.0960   -0.7960    1.0600 C   0  0  0  0  0  0  0  0  0  0  0  0
   -5.0330   -2.3210    0.9430 C   0  0  0  0  0  0  0  0  0  0  0  0
   -4.4180   -2.9050    2.2160 C   0  0  0  0  0  0  0  0  0  0  0  0
   -5.2790   -2.5220    3.4210 C   0  0  0  0  0  0  0  0  0  0  0  0
   -5.3430   -0.9980    3.5390 C   0  0  0  0  0  0  0  0  0  0  0  0
   -5.9580   -0.4130    2.2660 C   0  0  0  0  0  0  0  0  0  0  0  0
   -5.7120   -0.2120   -0.2130 C   0  0  0  0  0  0  0  0  0  0  0  0
   -6.5340    2.0620   -1.6590 C   0  0  0  0  0  0  0  0  0  0  0  0
   -7.9130    1.4120   -1.7850 C   0  0  0  0  0  0  0  0  0  0  0  0
   -5.6390    1.5850   -2.8050 C   0  0  0  0  0  0  0  0  0  0  0  0
   -6.6800    3.5840   -1.7260 C   0  0  0  0  0  0  0  0  0  0  0  0
    5.9750    3.0480    0.4680 C   0  0  0  0  0  0  0  0  0  0  0  0
    6.1690    4.1130    1.5700 C   0  0  0  0  0  0  0  0  0  0  0  0
    7.3390    0.9580    0.0690 C   0  0  0  0  0  0  0  0  0  0  0  0
    7.5930    2.3630    2.1220 C   0  0  0  0  0  0  0  0  0  0  0  0
    0.0420    2.0930   -0.5320 C   0  0  0  0  0  0  0  0  0  0  0  0
    0.6050    0.6510   -2.4930 C   0  0  0  0  0  0  0  0  0  0  0  0
   -1.7810    1.1890   -1.9830 C   0  0  0  0  0  0  0  0  0  0  0  0
    6.6100    1.7990    1.1200 C   0  0  1  0  0  0  0  0  0  0  0  0
    4.1370   -0.6270   -0.7360 C   0  0  0  0  0  0  0  0  0  0  0  0
    3.1770   -1.5590   -0.0420 C   0  0  1  0  0  0  0  0  0  0  0  0
   -1.5180   -0.1370    0.5450 N   0  0  0  0  0  0  0  0  0  0  0  0
   -3.7430   -0.2630    1.2380 N   0  0  0  0  0  0  0  0  0  0  0  0
    5.3940   -0.4850   -0.2700 N   0  0  0  0  0  0  0  0  0  0  0  0
    7.3270    3.6600    2.3510 N   0  0  0  0  0  0  0  0  0  0  0  0
    6.8050   -1.5650   -2.2350 N   0  0  0  0  0  0  0  0  0  0  0  0
    1.7880   -1.2900   -0.4810 N   0  0  0  0  0  0  0  0  0  0  0  0
    1.0530   -0.1640    1.2840 O   0  0  0  0  0  0  0  0  0  0  0  0
   -3.0660   -1.1530   -0.6810 O   0  0  0  0  0  0  0  0  0  0  0  0
   -6.6920    1.9310    0.9690 O   0  0  0  0  0  0  0  0  0  0  0  0
   -4.4600    2.1020   -0.0310 O   0  0  0  0  0  0  0  0  0  0  0  0
    8.4910    1.7350    2.6430 O   0  0  0  0  0  0  0  0  0  0  0  0
    3.7790   -0.0050   -1.7130 O   0  0  0  0  0  0  0  0  0  0  0  0
   -5.7870    1.5950   -0.0730 S   0  0  0  0  0  0  0  0  0  0  0  0
    5.7750    1.2520   -1.3830 H   0  0  0  0  0  0  0  0  0  0  0  0
    2.1440   -1.3500   -2.5730 H   0  0  0  0  0  0  0  0  0  0  0  0
    0.6400   -2.1610   -2.0400 H   0  0  0  0  0  0  0  0  0  0  0  0
    2.7320   -3.8320   -2.5240 H   0  0  0  0  0  0  0  0  0  0  0  0
    4.4810   -3.3530   -0.5060 H   0  0  0  0  0  0  0  0  0  0  0  0
   -0.7690   -1.2090   -1.0940 H   0  0  0  0  0  0  0  0  0  0  0  0
    7.7890    0.1820   -2.6400 H   0  0  0  0  0  0  0  0  0  0  0  0
    3.1690   -5.7810   -1.2280 H   0  0  0  0  0  0  0  0  0  0  0  0
    3.3870   -5.7070    0.5370 H   0  0  0  0  0  0  0  0  0  0  0  0
    1.7970   -6.1220   -0.1470 H   0  0  0  0  0  0  0  0  0  0  0  0
    0.4230   -4.4650    0.6430 H   0  0  0  0  0  0  0  0  0  0  0  0
    1.5140   -3.4470    1.6140 H   0  0  0  0  0  0  0  0  0  0  0  0
    0.6600   -2.7540    0.2150 H   0  0  0  0  0  0  0  0  0  0  0  0
   -6.0400   -2.7170    0.8110 H   0  0  0  0  0  0  0  0  0  0  0  0
   -4.4190   -2.5930    0.0840 H   0  0  0  0  0  0  0  0  0  0  0  0
   -4.3720   -3.9910    2.1320 H   0  0  0  0  0  0  0  0  0  0  0  0
   -3.4110   -2.5080    2.3480 H   0  0  0  0  0  0  0  0  0  0  0  0
   -6.2860   -2.9180    3.2890 H   0  0  0  0  0  0  0  0  0  0  0  0
   -4.8410   -2.9380    4.3280 H   0  0  0  0  0  0  0  0  0  0  0  0
   -5.9560   -0.7250    4.3970 H   0  0  0  0  0  0  0  0  0  0  0  0
   -4.3360   -0.6010    3.6710 H   0  0  0  0  0  0  0  0  0  0  0  0
   -6.0030    0.6730    2.3490 H   0  0  0  0  0  0  0  0  0  0  0  0
   -6.9650   -0.8100    2.1330 H   0  0  0  0  0  0  0  0  0  0  0  0
   -5.0980   -0.4850   -1.0710 H   0  0  0  0  0  0  0  0  0  0  0  0
   -6.7190   -0.6090   -0.3450 H   0  0  0  0  0  0  0  0  0  0  0  0
   -8.5510    1.7520   -0.9690 H   0  0  0  0  0  0  0  0  0  0  0  0
   -8.3610    1.6920   -2.7380 H   0  0  0  0  0  0  0  0  0  0  0  0
   -7.8090    0.3280   -1.7380 H   0  0  0  0  0  0  0  0  0  0  0  0
   -5.5350    0.5010   -2.7570 H   0  0  0  0  0  0  0  0  0  0  0  0
   -6.0870    1.8660   -3.7580 H   0  0  0  0  0  0  0  0  0  0  0  0
   -4.6560    2.0490   -2.7150 H   0  0  0  0  0  0  0  0  0  0  0  0
   -5.6970    4.0470   -1.6360 H   0  0  0  0  0  0  0  0  0  0  0  0
   -7.1280    3.8650   -2.6790 H   0  0  0  0  0  0  0  0  0  0  0  0
   -7.3180    3.9240   -0.9100 H   0  0  0  0  0  0  0  0  0  0  0  0
    4.9160    2.8860    0.2640 H   0  0  0  0  0  0  0  0  0  0  0  0
    6.5070    3.3270   -0.4420 H   0  0  0  0  0  0  0  0  0  0  0  0
    6.3730    5.0860    1.1230 H   0  0  0  0  0  0  0  0  0  0  0  0
    5.2840    4.1660    2.2040 H   0  0  0  0  0  0  0  0  0  0  0  0
    7.8430    0.1240    0.5570 H   0  0  0  0  0  0  0  0  0  0  0  0
    8.0750    1.5770   -0.4440 H   0  0  0  0  0  0  0  0  0  0  0  0
    1.0200    1.8850   -0.0980 H   0  0  0  0  0  0  0  0  0  0  0  0
    0.1060    2.9780   -1.1650 H   0  0  0  0  0  0  0  0  0  0  0  0
   -0.6800    2.2680    0.2650 H   0  0  0  0  0  0  0  0  0  0  0  0
    0.2560   -0.1660   -3.1260 H   0  0  0  0  0  0  0  0  0  0  0  0
    0.7110    1.5550   -3.0920 H   0  0  0  0  0  0  0  0  0  0  0  0
    1.5700    0.3870   -2.0590 H   0  0  0  0  0  0  0  0  0  0  0  0
   -2.4800    1.4560   -1.1910 H   0  0  0  0  0  0  0  0  0  0  0  0
   -1.6970    2.0160   -2.6880 H   0  0  0  0  0  0  0  0  0  0  0  0
   -2.1430    0.3030   -2.5040 H   0  0  0  0  0  0  0  0  0  0  0  0
    5.8490    1.2020    1.6230 H   0  0  0  0  0  0  0  0  0  0  0  0
    3.2630   -1.4550    1.0400 H   0  0  0  0  0  0  0  0  0  0  0  0
   -1.2800    0.2920    1.3820 H   0  0  0  0  0  0  0  0  0  0  0  0
   -3.5370    0.2890    2.0090 H   0  0  0  0  0  0  0  0  0  0  0  0
    5.6810   -0.9830    0.5120 H   0  0  0  0  0  0  0  0  0  0  0  0
    7.8340    4.2250    2.9550 H   0  0  0  0  0  0  0  0  0  0  0  0
    7.2740   -2.0460   -2.9350 H   0  0  0  0  0  0  0  0  0  0  0  0
 20 22  1  0  0  0  0
 20 23  1  0  0  0  0
 20 21  1  0  0  0  0
 20 46  1  0  0  0  0
  7 30  1  0  0  0  0
  7 29  1  0  0  0  0
  2  3  1  0  0  0  0
  2 39  1  0  0  0  0
  6  7  1  0  0  0  0
  7 28  1  0  0  0  0
 43 46  2  0  0  0  0
 42 46  2  0  0  0  0
 19 46  1  0  0  0  0
  8 41  2  0  0  0  0
  3 10  1  0  0  0  0
  3  4  1  0  0  0  0
  6 34  1  0  0  0  0
  5  6  1  0  0  0  0
 13 19  1  0  0  0  0
 32 45  2  0  0  0  0
  8 34  1  0  0  0  0
  8 35  1  0  0  0  0
  5 39  1  0  0  0  0
 33 39  1  0  0  0  0
 10 11  1  0  0  0  0
  4 10  1  0  0  0  0
 10 12  1  0  0  0  0
  5 40  2  0  0  0  0
  4 33  1  0  0  0  0
 32 33  1  0  0  0  0
 32 36  1  0  0  0  0
 24 25  1  0  0  0  0
 24 31  1  0  0  0  0
 13 35  1  0  0  0  0
 25 37  1  0  0  0  0
 13 14  1  0  0  0  0
 13 18  1  0  0  0  0
 14 15  1  0  0  0  0
  1 36  1  0  0  0  0
  1  9  1  0  0  0  0
  1 26  1  0  0  0  0
  9 38  2  0  0  0  0
 26 31  1  0  0  0  0
 27 31  1  0  0  0  0
 17 18  1  0  0  0  0
 27 37  1  0  0  0  0
 15 16  1  0  0  0  0
 27 44  2  0  0  0  0
 16 17  1  0  0  0  0
  1 47  1  0  0  0  0
  2 48  1  0  0  0  0
  2 49  1  0  0  0  0
  3 50  1  0  0  0  0
  4 51  1  0  0  0  0
  6 52  1  0  0  0  0
  9 53  1  0  0  0  0
 11 54  1  0  0  0  0
 11 55  1  0  0  0  0
 11 56  1  0  0  0  0
 12 57  1  0  0  0  0
 12 58  1  0  0  0  0
 12 59  1  0  0  0  0
 14 60  1  0  0  0  0
 14 61  1  0  0  0  0
 15 62  1  0  0  0  0
 15 63  1  0  0  0  0
 16 64  1  0  0  0  0
 16 65  1  0  0  0  0
 17 66  1  0  0  0  0
 17 67  1  0  0  0  0
 18 68  1  0  0  0  0
 18 69  1  0  0  0  0
 19 70  1  0  0  0  0
 19 71  1  0  0  0  0
 21 72  1  0  0  0  0
 21 73  1  0  0  0  0
 21 74  1  0  0  0  0
 22 75  1  0  0  0  0
 22 76  1  0  0  0  0
 22 77  1  0  0  0  0
 23 78  1  0  0  0  0
 23 79  1  0  0  0  0
 23 80  1  0  0  0  0
 24 81  1  0  0  0  0
 24 82  1  0  0  0  0
 25 83  1  0  0  0  0
 25 84  1  0  0  0  0
 26 85  1  0  0  0  0
 26 86  1  0  0  0  0
 28 87  1  0  0  0  0
 28 88  1  0  0  0  0
 28 89  1  0  0  0  0
 29 90  1  0  0  0  0
 29 91  1  0  0  0  0
 29 92  1  0  0  0  0
 30 93  1  0  0  0  0
 30 94  1  0  0  0  0
 30 95  1  0  0  0  0
 31 96  1  0  0  0  0
 33 97  1  0  0  0  0
 34 98  1  0  0  0  0
 35 99  1  0  0  0  0
 36100  1  0  0  0  0
 37101  1  0  0  0  0
 38102  1  0  0  0  0
M  END
> <OPENEYE_ISO_SMILES>
[H]/N=C/[C@H](C[C@@H]1CCNC1=O)NC(=O)[C@@H]2[C@@H]3[C@@H](C3(C)C)CN2C(=O)[C@H](C(C)(C)C)NC(=O)NC4(CCCCC4)CS(=O)(=O)C(C)(C)C

> <OPENEYE_INCHI>
InChI=1S/C33H56N6O6S/c1-30(2,3)25(37-29(43)38-33(13-10-9-11-14-33)19-46(44,45)31(4,5)6)28(42)39-18-22-23(32(22,7)8)24(39)27(41)36-21(17-34)16-20-12-15-35-26(20)40/h17,20-25,34H,9-16,18-19H2,1-8H3,(H,35,40)(H,36,41)(H2,37,38,43)/b34-17+/t20-,21-,22-,23-,24-,25+/m0/s1

> <OPENEYE_INCHIKEY>
RXHKWDZUWDFTBO-HRMIVWBPSA-N

> <FORMULA>
C33H56N6O6S

$$$$
