J7O
  -OEChem-02242320023D

 70 75  0     1  0  0  0  0  0999 V2000
    3.9820   -1.7270   -1.4780 N   0  0  0  0  0  0  0  0  0  0  0  0
    1.1230   -0.1100    1.1170 N   0  0  1  0  0  0  0  0  0  0  0  0
    4.1520    1.0080   -0.6740 C   0  0  0  0  0  0  0  0  0  0  0  0
    4.2450    2.3060   -0.2180 C   0  0  0  0  0  0  0  0  0  0  0  0
    3.3100    2.8020    0.6770 C   0  0  0  0  0  0  0  0  0  0  0  0
    2.2750    2.0050    1.1200 C   0  0  0  0  0  0  0  0  0  0  0  0
    2.1640    0.6950    0.6710 C   0  0  0  0  0  0  0  0  0  0  0  0
    0.4460   -2.3560    1.6280 C   0  0  0  0  0  0  0  0  0  0  0  0
   -3.8420   -1.1740   -0.5330 C   0  0  0  0  0  0  0  0  0  0  0  0
   -4.1300    0.0640    1.6140 C   0  0  0  0  0  0  0  0  0  0  0  0
   -5.5970    2.0910    0.4290 C   0  0  0  0  0  0  0  0  0  0  0  0
   -6.1490    2.0510   -2.2910 C   0  0  0  0  0  0  0  0  0  0  0  0
   -5.4230    1.0280   -1.7570 C   0  0  0  0  0  0  0  0  0  0  0  0
   -5.1340    1.0290   -0.3900 C   0  0  0  0  0  0  0  0  0  0  0  0
   -0.6250   -2.8410   -0.6130 C   0  0  2  0  0  0  0  0  0  0  0  0
    1.1810   -4.5310   -0.9990 C   0  0  0  0  0  0  0  0  0  0  0  0
    1.3760   -6.4850    0.3710 C   0  0  0  0  0  0  0  0  0  0  0  0
    3.8750   -3.1060   -1.9590 C   0  0  0  0  0  0  0  0  0  0  0  0
   -0.4400   -1.8080    0.5040 C   0  0  1  0  0  0  0  0  0  0  0  0
   -1.8480   -1.4810    1.0160 C   0  0  0  0  0  0  0  0  0  0  0  0
   -4.3600   -0.0350    0.2480 C   0  0  0  0  0  0  0  0  0  0  0  0
   -5.2870    2.0690    1.7990 C   0  0  0  0  0  0  0  0  0  0  0  0
   -6.3380    3.1320   -0.1500 C   0  0  0  0  0  0  0  0  0  0  0  0
   -6.6090    3.0990   -1.4900 C   0  0  0  0  0  0  0  0  0  0  0  0
    2.9960   -1.1960   -0.7280 C   0  0  0  0  0  0  0  0  0  0  0  0
   -2.1530   -3.0670   -0.6840 C   0  0  0  0  0  0  0  0  0  0  0  0
    0.0830   -4.1250   -0.2630 C   0  0  0  0  0  0  0  0  0  0  0  0
    1.8270   -5.7110   -0.6820 C   0  0  0  0  0  0  0  0  0  0  0  0
    0.2850   -6.0730    1.1130 C   0  0  0  0  0  0  0  0  0  0  0  0
    3.1060    0.1900   -0.2390 C   0  0  0  0  0  0  0  0  0  0  0  0
   -0.3650   -4.8960    0.7930 C   0  0  0  0  0  0  0  0  0  0  0  0
    0.2650   -0.5490   -0.0170 C   0  0  0  0  0  0  0  0  0  0  0  0
    1.6400   -1.3760    1.6990 C   0  0  0  0  0  0  0  0  0  0  0  0
    1.2820    2.5450    2.0760 N   0  3  0  0  0  0  0  0  0  0  0  0
   -2.7420   -1.8320   -0.1160 N   0  0  0  0  0  0  0  0  0  0  0  0
   -4.5930    1.0840    2.3170 N   0  0  0  0  0  0  0  0  0  0  0  0
    2.0150   -1.8620   -0.4540 O   0  0  0  0  0  0  0  0  0  0  0  0
    1.3240    3.7190    2.3990 O   0  0  0  0  0  0  0  0  0  0  0  0
    0.4230    1.8160    2.5390 O   0  5  0  0  0  0  0  0  0  0  0  0
   -4.4070   -1.5200   -1.5520 O   0  0  0  0  0  0  0  0  0  0  0  0
   -7.3310    4.1050   -2.0520 O   0  0  0  0  0  0  0  0  0  0  0  0
    5.6570    3.4130   -0.8140 Br  0  0  0  0  0  0  0  0  0  0  0  0
    4.7640   -1.1960   -1.6970 H   0  0  0  0  0  0  0  0  0  0  0  0
    4.8830    0.6260   -1.3710 H   0  0  0  0  0  0  0  0  0  0  0  0
    3.3910    3.8200    1.0280 H   0  0  0  0  0  0  0  0  0  0  0  0
   -0.0980   -2.3600    2.5730 H   0  0  0  0  0  0  0  0  0  0  0  0
    0.7920   -3.3600    1.3840 H   0  0  0  0  0  0  0  0  0  0  0  0
   -3.5660   -0.7100    2.1140 H   0  0  0  0  0  0  0  0  0  0  0  0
   -6.3720    2.0500   -3.3480 H   0  0  0  0  0  0  0  0  0  0  0  0
   -5.0740    0.2220   -2.3860 H   0  0  0  0  0  0  0  0  0  0  0  0
   -0.2540   -2.4490   -1.5590 H   0  0  0  0  0  0  0  0  0  0  0  0
    1.5310   -3.9290   -1.8240 H   0  0  0  0  0  0  0  0  0  0  0  0
    1.8830   -7.4050    0.6210 H   0  0  0  0  0  0  0  0  0  0  0  0
    4.7600   -3.3560   -2.5440 H   0  0  0  0  0  0  0  0  0  0  0  0
    3.7990   -3.7830   -1.1080 H   0  0  0  0  0  0  0  0  0  0  0  0
    2.9870   -3.2060   -2.5830 H   0  0  0  0  0  0  0  0  0  0  0  0
   -2.0860   -2.0870    1.8900 H   0  0  0  0  0  0  0  0  0  0  0  0
   -1.9310   -0.4210    1.2540 H   0  0  0  0  0  0  0  0  0  0  0  0
   -5.6320    2.8700    2.4360 H   0  0  0  0  0  0  0  0  0  0  0  0
   -6.6920    3.9520    0.4570 H   0  0  0  0  0  0  0  0  0  0  0  0
   -2.4700   -3.1980   -1.7190 H   0  0  0  0  0  0  0  0  0  0  0  0
   -2.4370   -3.9340   -0.0870 H   0  0  0  0  0  0  0  0  0  0  0  0
    2.6850   -6.0280   -1.2560 H   0  0  0  0  0  0  0  0  0  0  0  0
   -0.0600   -6.6710    1.9440 H   0  0  0  0  0  0  0  0  0  0  0  0
   -1.2220   -4.5780    1.3680 H   0  0  0  0  0  0  0  0  0  0  0  0
   -0.4660    0.2230   -0.2620 H   0  0  0  0  0  0  0  0  0  0  0  0
    0.8760   -0.7860   -0.8880 H   0  0  0  0  0  0  0  0  0  0  0  0
    2.4760   -1.7530    1.1090 H   0  0  0  0  0  0  0  0  0  0  0  0
    1.9450   -1.2220    2.7340 H   0  0  0  0  0  0  0  0  0  0  0  0
   -8.2850    3.9480   -2.0570 H   0  0  0  0  0  0  0  0  0  0  0  0
 17 28  2  0  0  0  0
 16 28  1  0  0  0  0
 17 29  1  0  0  0  0
 16 27  2  0  0  0  0
 29 31  2  0  0  0  0
 27 31  1  0  0  0  0
 15 27  1  0  0  0  0
  8 33  1  0  0  0  0
  8 19  1  0  0  0  0
  2 33  1  0  0  0  0
 34 39  1  0  0  0  0
 12 13  2  0  0  0  0
 12 24  1  0  0  0  0
 24 41  1  0  0  0  0
 13 14  1  0  0  0  0
 15 26  1  0  0  0  0
 26 35  1  0  0  0  0
 23 24  2  0  0  0  0
 15 19  1  0  0  0  0
  1 18  1  0  0  0  0
 19 32  1  0  0  0  0
 19 20  1  0  0  0  0
  1 25  1  0  0  0  0
  2  7  1  0  0  0  0
  2 32  1  0  0  0  0
  6 34  1  0  0  0  0
 34 38  2  0  0  0  0
 20 35  1  0  0  0  0
  9 35  1  0  0  0  0
  6  7  2  0  0  0  0
  7 30  1  0  0  0  0
  5  6  1  0  0  0  0
  9 40  2  0  0  0  0
 25 30  1  0  0  0  0
 25 37  2  0  0  0  0
  3 30  2  0  0  0  0
  4  5  2  0  0  0  0
  9 21  1  0  0  0  0
 14 21  2  0  0  0  0
 11 14  1  0  0  0  0
 11 23  1  0  0  0  0
  3  4  1  0  0  0  0
  4 42  1  0  0  0  0
 10 21  1  0  0  0  0
 11 22  2  0  0  0  0
 10 36  2  0  0  0  0
 22 36  1  0  0  0  0
  1 43  1  0  0  0  0
  3 44  1  0  0  0  0
  5 45  1  0  0  0  0
  8 46  1  0  0  0  0
  8 47  1  0  0  0  0
 10 48  1  0  0  0  0
 12 49  1  0  0  0  0
 13 50  1  0  0  0  0
 15 51  1  0  0  0  0
 16 52  1  0  0  0  0
 17 53  1  0  0  0  0
 18 54  1  0  0  0  0
 18 55  1  0  0  0  0
 18 56  1  0  0  0  0
 20 57  1  0  0  0  0
 20 58  1  0  0  0  0
 22 59  1  0  0  0  0
 23 60  1  0  0  0  0
 26 61  1  0  0  0  0
 26 62  1  0  0  0  0
 28 63  1  0  0  0  0
 29 64  1  0  0  0  0
 31 65  1  0  0  0  0
 32 66  1  0  0  0  0
 32 67  1  0  0  0  0
 33 68  1  0  0  0  0
 33 69  1  0  0  0  0
 41 70  1  0  0  0  0
M  CHG  2  34   1  39  -1
M  END
> <OPENEYE_ISO_SMILES>
CNC(=O)c1cc(cc(c1[N@@]2CC[C@]3(C2)CN(C[C@@H]3c4ccccc4)C(=O)c5cncc6c5ccc(c6)O)[N+](=O)[O-])Br

> <OPENEYE_INCHI>
InChI=1S/C31H28BrN5O5/c1-33-29(39)24-12-21(32)13-27(37(41)42)28(24)35-10-9-31(17-35)18-36(16-26(31)19-5-3-2-4-6-19)30(40)25-15-34-14-20-11-22(38)7-8-23(20)25/h2-8,11-15,26,38H,9-10,16-18H2,1H3,(H,33,39)/t26-,31+/m1/s1

> <OPENEYE_INCHIKEY>
CFAZYCDVXXGVDB-NEEKEDPPSA-N

> <FORMULA>
C31H28BrN5O5

$$$$
