@<TRIPOS>MOLECULE
/home/pku/3cl/gett_pdb/7MB1/7MB1_mol2/ligand/7MB1_YVJ.pdb
 75 77 0 0 0
SMALL
GASTEIGER

@<TRIPOS>ATOM
      1  C10       -8.1190  -10.8630   17.9330 C.2   401  YVJ401      0.2162
      2  C13       -9.8130  -15.3510   19.5190 C.3   401  YVJ401     -0.0075
      3  C15      -11.1120  -17.4940   18.8590 C.2   401  YVJ401      0.3074
      4  C20      -13.2090  -18.7360   18.2830 C.3   401  YVJ401      0.0896
      5  C21      -12.8730  -18.5640   16.7800 C.3   401  YVJ401     -0.0306
      6  C22       -9.8390  -10.4870   16.3190 C.3   401  YVJ401      0.0123
      7  C24      -12.9260  -11.8390   27.1750 C.ar  401  YVJ401     -0.0617
      8  C26      -14.1680  -12.0880   24.8630 C.ar  401  YVJ401     -0.0585
      9  C28      -11.7640  -13.0990   25.1350 C.ar  401  YVJ401     -0.0585
     10  C01      -12.3610   -9.8690   21.4730 C.2   401  YVJ401      0.2308
     11  C04      -12.2480  -12.2250   22.1180 C.3   401  YVJ401      0.1033
     12  C05      -13.0270  -13.2990   22.8050 C.3   401  YVJ401     -0.0007
     13  C07      -10.0880  -13.8450   19.3020 C.3   401  YVJ401      0.0275
     14  C08       -8.8480  -13.0660   18.8140 C.3   401  YVJ401     -0.0231
     15  C09       -9.2330  -11.6670   18.3470 C.3   401  YVJ401      0.0386
     16  C14      -11.1440  -16.1360   19.6570 C.3   401  YVJ401      0.0498
     17  C18      -11.8800  -12.7400   20.7170 C.2   401  YVJ401      0.2339
     18  C23      -10.2730  -11.6290   17.2580 C.3   401  YVJ401     -0.0262
     19  C25      -14.1250  -11.5960   26.3040 C.ar  401  YVJ401     -0.0615
     20  C27      -12.9940  -12.8530   24.2900 C.ar  401  YVJ401     -0.0451
     21  C29      -11.7250  -12.6070   26.5940 C.ar  401  YVJ401     -0.0615
     22  C30      -13.2500   -8.6600   21.1500 C.3   401  YVJ401      0.0863
     23  C32      -14.1050   -8.2300   22.3170 C.3   401  YVJ401     -0.0039
     24  C33      -11.7690   -6.7250   25.9240 C.ar  401  YVJ401      0.1234
     25  C34      -12.1710   -8.1880   25.8280 C.ar  401  YVJ401     -0.0262
     26  C35      -12.9440   -8.6690   24.6230 C.ar  401  YVJ401     -0.0558
     27  C36      -13.3270   -7.7230   23.5230 C.ar  401  YVJ401     -0.0453
     28  C37      -12.9020   -6.2690   23.6140 C.ar  401  YVJ401     -0.0558
     29  C38      -12.1770   -5.7690   24.8310 C.ar  401  YVJ401     -0.0262
     30  F39      -11.1040   -6.2640   26.9880 F     401  YVJ401     -0.2055
     31  N02      -13.0360  -11.0440   21.9050 N.am  401  YVJ401     -0.3024
     32  N06      -10.5560  -13.2900   20.5610 N.am  401  YVJ401     -0.3106
     33  N11       -8.4720  -10.1600   16.6810 N.am  401  YVJ401     -0.3151
     34  N31      -12.3940   -7.5880   20.7660 N.3   401  YVJ401     -0.3197
     35  O03      -11.1840   -9.8370   21.3370 O.2   401  YVJ401     -0.2741
     36  O12       -7.0160  -10.7780   18.4610 O.2   401  YVJ401     -0.2755
     37  O16      -12.0910  -18.5200   19.1610 O.3   401  YVJ401     -0.4649
     38  O17      -10.2760  -17.7340   18.0250 O.2   401  YVJ401     -0.2508
     39  O19      -12.6150  -12.6680   19.7700 O.2   401  YVJ401     -0.2738
     40 H131       -9.2870  -15.7020   18.8100 H     401  YVJ401      0.0327
     41 H202      -13.5240  -19.6110   18.4170 H     401  YVJ401      0.0694
     42 H201      -13.8840  -18.1230   18.5070 H     401  YVJ401      0.0694
     43 H211      -12.2600  -19.2260   16.5190 H     401  YVJ401      0.0262
     44 H213      -12.4970  -17.7150   16.6390 H     401  YVJ401      0.0262
     45 H212      -13.6590  -18.6470   16.2730 H     401  YVJ401      0.0262
     46 H221       -9.8740  -10.7740   15.4260 H     401  YVJ401      0.0462
     47 H222      -10.3920   -9.7380   16.4460 H     401  YVJ401      0.0462
     48 H241      -12.9090  -11.5310   28.0520 H     401  YVJ401      0.0618
     49 H261      -14.9150  -11.9200   24.3360 H     401  YVJ401      0.0620
     50 H281      -11.0330  -13.5470   24.7750 H     401  YVJ401      0.0620
     51 H041      -11.5060  -12.0190   22.6550 H     401  YVJ401      0.0598
     52 H051      -12.6170  -14.1370   22.6950 H     401  YVJ401      0.0336
     53 H052      -13.9080  -13.3370   22.4830 H     401  YVJ401      0.0336
     54 H071      -10.7350  -13.7600   18.6270 H     401  YVJ401      0.0501
     55 H082       -8.2320  -12.9960   19.5190 H     401  YVJ401      0.0290
     56 H081       -8.4550  -13.5310   18.1000 H     401  YVJ401      0.0290
     57 H091       -9.6150  -11.2480   19.0950 H     401  YVJ401      0.0395
     58 H141      -11.2940  -16.3210   20.5650 H     401  YVJ401      0.0381
     59 H142      -11.8440  -15.6060   19.3260 H     401  YVJ401      0.0381
     60 H232      -10.2870  -12.4440   16.7930 H     401  YVJ401      0.0288
     61 H231      -11.1190  -11.4450   17.6230 H     401  YVJ401      0.0288
     62 H251      -14.8550  -11.1360   26.6500 H     401  YVJ401      0.0618
     63 H291      -10.9790  -12.7720   27.1220 H     401  YVJ401      0.0618
     64 H301      -13.8410   -8.8990   20.4600 H     401  YVJ401      0.0557
     65 H321      -14.6190   -8.9670   22.5890 H     401  YVJ401      0.0333
     66 H322      -14.6730   -7.5420   22.0250 H     401  YVJ401      0.0333
     67 H341      -11.9420   -8.7820   26.5050 H     401  YVJ401      0.0646
     68 H351      -13.1860   -9.5630   24.5620 H     401  YVJ401      0.0621
     69 H371      -13.0900   -5.6860   22.9150 H     401  YVJ401      0.0621
     70 H381      -11.9780   -4.8650   24.9110 H     401  YVJ401      0.0646
     71 H021      -13.8940  -11.0470   22.0350 H     401  YVJ401      0.1495
     72 H061      -10.0180  -13.2880   21.2430 H     401  YVJ401      0.1490
     73 H111       -8.0740   -9.4350   16.4200 H     401  YVJ401      0.1487
     74 H312      -11.5940   -7.7320   21.0670 H     401  YVJ401      0.1189
     75  H2       -12.3700   -7.4900   19.9060 H     401  YVJ401      0.1189
@<TRIPOS>BOND
     1    46     6    1
     2    45     5    1
     3     6    47    1
     4     6    33    1
     5     6    18    1
     6    73    33    1
     7    43     5    1
     8    44     5    1
     9    33     1   am
    10     5     4    1
    11    60    18    1
    12    18    61    1
    13    18    15    1
    14     1    15    1
    15     1    36    2
    16    38     3    2
    17    56    14    1
    18     4    41    1
    19     4    42    1
    20     4    37    1
    21    15    14    1
    22    15    57    1
    23    54    13    1
    24    40     2    1
    25    14    13    1
    26    14    55    1
    27     3    37    1
    28     3    16    1
    29    13     2    1
    30    13    32    1
    31    59    16    1
    32     2    16    1
    33    16    58    1
    34    39    17    2
    35    75    34    1
    36    64    22    1
    37    32    17   am
    38    32    72    1
    39    17    11    1
    40    34    74    1
    41    34    22    1
    42    22    10    1
    43    22    23    1
    44    35    10    2
    45    10    31   am
    46    31    71    1
    47    31    11    1
    48    66    23    1
    49    11    51    1
    50    11    12    1
    51    23    65    1
    52    23    27    1
    53    53    12    1
    54    52    12    1
    55    12    20    1
    56    69    28    1
    57    27    28   ar
    58    27    26   ar
    59    28    29   ar
    60    20     8   ar
    61    20     9   ar
    62    49     8    1
    63    68    26    1
    64    26    25   ar
    65    50     9    1
    66    29    70    1
    67    29    24   ar
    68     8    19   ar
    69     9    21   ar
    70    25    24   ar
    71    25    67    1
    72    24    30    1
    73    19    62    1
    74    19     7   ar
    75    21    63    1
    76    21     7   ar
    77     7    48    1
