@<TRIPOS>MOLECULE
/home/pku/3cl/gett_pdb/5SSD/5SSD_mol2/ligand/5SSD_RNL.pdb
 36 38 0 0 0
SMALL
GASTEIGER

@<TRIPOS>ATOM
      1  N1       -50.7310  -29.1580    7.5290 N.ar  201  RNL201     -0.3138
      2  O4       -43.1350  -31.4760    3.6860 O.co2 201  RNL201     -0.2460
      3  C13      -51.3740  -29.1160    6.3300 C.ar  201  RNL201      0.2959
      4  O2       -44.5320  -28.7140    1.9510 O.2   201  RNL201     -0.2755
      5  C12      -50.5780  -29.2220    5.1750 C.ar  201  RNL201      0.2262
      6  C11      -43.4160  -32.2040    2.7090 C.2   201  RNL201      0.3598
      7  O3       -52.5730  -28.9920    6.2420 O.2   201  RNL201     -0.2636
      8  C10      -43.0710  -31.8000    1.2780 C.3   201  RNL201      0.0724
      9  C9       -42.3060  -30.4970    1.0780 C.3   201  RNL201     -0.0273
     10  C8       -43.7680  -30.5710    0.6580 C.3   201  RNL201      0.0493
     11  C7       -44.7780  -29.7670    1.4670 C.2   201  RNL201      0.2169
     12  C6       -47.2120  -29.6860    2.2010 C.3   201  RNL201      0.0185
     13  C5       -47.2610  -29.6140    3.7460 C.3   201  RNL201      0.0233
     14  C4       -48.7470  -29.4330    4.0810 C.ar  201  RNL201      0.1394
     15  C3       -48.6620  -29.4070    6.3880 C.ar  201  RNL201      0.0293
     16  C2       -49.3870  -29.3050    7.5730 C.ar  201  RNL201      0.0243
     17  C1       -51.5010  -29.0660    8.7780 C.3   201  RNL201      0.0149
     18  O1       -43.9990  -33.3090    2.8760 O.co2 201  RNL201     -0.2460
     19  N2       -49.3150  -29.3540    5.2410 N.ar  201  RNL201     -0.2806
     20  N3       -46.0880  -30.3770    1.5490 N.am  201  RNL201     -0.3146
     21  N4       -49.7020  -29.3340    3.1500 N.ar  201  RNL201     -0.1335
     22  N5       -50.9010  -29.1970    3.8810 N.ar  201  RNL201     -0.1238
     23  H2       -42.8940  -32.4810    0.6400 H     201  RNL201      0.0422
     24  H14      -42.1430  -29.9780    1.8710 H     201  RNL201      0.0281
     25  H13      -41.6950  -30.4970    0.3360 H     201  RNL201      0.0281
     26  H1       -43.9360  -30.6340   -0.2880 H     201  RNL201      0.0402
     27  H10      -48.0300  -30.1290    1.8970 H     201  RNL201      0.0466
     28  H11      -47.2440  -28.7730    1.8760 H     201  RNL201      0.0466
     29  H9       -46.7780  -28.8500    4.0870 H     201  RNL201      0.0359
     30  H8       -46.9450  -30.4300    4.1530 H     201  RNL201      0.0359
     31  H7       -47.7430  -29.4990    6.4130 H     201  RNL201      0.0828
     32  H6       -48.9590  -29.3310    8.3990 H     201  RNL201      0.0825
     33  H3       -52.3120  -29.5980    8.7010 H     201  RNL201      0.0457
     34  H4       -51.7360  -28.1450    8.9600 H     201  RNL201      0.0457
     35  H5       -50.9650  -29.4130    9.5120 H     201  RNL201      0.0457
     36  H12      -46.2360  -31.1340    1.1470 H     201  RNL201      0.1487
@<TRIPOS>BOND
     1    26    10    1
     2    25     9    1
     3    23     8    1
     4    10     9    1
     5    10     8    1
     6    10    11    1
     7     9     8    1
     8     9    24    1
     9    36    20    1
    10     8     6    1
    11    11    20   am
    12    11     4    2
    13    20    12    1
    14    28    12    1
    15    27    12    1
    16    12    13    1
    17     6    18   ar
    18     6     2   ar
    19    21    22   ar
    20    21    14   ar
    21    13    14    1
    22    13    29    1
    23    13    30    1
    24    22     5   ar
    25    14    19   ar
    26     5    19   ar
    27     5     3   ar
    28    19    15   ar
    29     7     3    2
    30     3     1   ar
    31    15    31    1
    32    15    16   ar
    33     1    16   ar
    34     1    17    1
    35    16    32    1
    36    33    17    1
    37    17    34    1
    38    17    35    1
