92G
  -OEChem-02242320013D

 21 22  0     0  0  0  0  0  0999 V2000
    4.8500    0.1990   -0.0150 O   0  0  0  0  0  0  0  0  0  0  0  0
    1.3470    1.1780   -0.0130 C   0  0  0  0  0  0  0  0  0  0  0  0
    2.7240    1.2650   -0.0140 C   0  0  0  0  0  0  0  0  0  0  0  0
    3.4930    0.1100   -0.0140 C   0  0  0  0  0  0  0  0  0  0  0  0
    1.5050   -1.2300   -0.0120 C   0  0  0  0  0  0  0  0  0  0  0  0
    2.8810   -1.1360   -0.0130 C   0  0  0  0  0  0  0  0  0  0  0  0
    0.7290   -0.0720   -0.0130 C   0  0  0  0  0  0  0  0  0  0  0  0
   -0.7510   -0.1690   -0.0050 C   0  0  0  0  0  0  0  0  0  0  0  0
   -2.8160    0.6990    0.0030 C   0  0  0  0  0  0  0  0  0  0  0  0
   -1.3940   -1.3490    0.0010 C   0  0  0  0  0  0  0  0  0  0  0  0
   -3.1280   -1.0340    0.0090 S   0  0  0  0  0  0  0  0  0  0  0  0
   -1.5360    0.9080    0.0010 N   0  0  0  0  0  0  0  0  0  0  0  0
   -3.7880    1.6860    0.0050 N   0  0  0  0  0  0  0  0  0  0  0  0
    5.2430    0.2260    0.8680 H   0  0  0  0  0  0  0  0  0  0  0  0
    0.7490    2.0770   -0.0080 H   0  0  0  0  0  0  0  0  0  0  0  0
    3.2030    2.2330   -0.0150 H   0  0  0  0  0  0  0  0  0  0  0  0
    1.0290   -2.1990   -0.0120 H   0  0  0  0  0  0  0  0  0  0  0  0
    3.4830   -2.0330   -0.0130 H   0  0  0  0  0  0  0  0  0  0  0  0
   -0.9280   -2.3230    0.0000 H   0  0  0  0  0  0  0  0  0  0  0  0
   -4.7270    1.4430    0.0100 H   0  0  0  0  0  0  0  0  0  0  0  0
   -3.5290    2.6210    0.0010 H   0  0  0  0  0  0  0  0  0  0  0  0
  1  4  1  0  0  0  0
  1 14  1  0  0  0  0
  2  3  2  0  0  0  0
  2  7  1  0  0  0  0
  2 15  1  0  0  0  0
  3  4  1  0  0  0  0
  3 16  1  0  0  0  0
  4  6  2  0  0  0  0
  5  6  1  0  0  0  0
  5  7  2  0  0  0  0
  5 17  1  0  0  0  0
  6 18  1  0  0  0  0
  7  8  1  0  0  0  0
  8 10  2  0  0  0  0
  8 12  1  0  0  0  0
  9 11  1  0  0  0  0
  9 12  2  0  0  0  0
  9 13  1  0  0  0  0
 10 11  1  0  0  0  0
 10 19  1  0  0  0  0
 13 20  1  0  0  0  0
 13 21  1  0  0  0  0
M  END
> <OPENEYE_ISO_SMILES>
c1cc(ccc1c2csc(n2)N)O

> <OPENEYE_INCHI>
InChI=1S/C9H8N2OS/c10-9-11-8(5-13-9)6-1-3-7(12)4-2-6/h1-5,12H,(H2,10,11)

> <OPENEYE_INCHIKEY>
QGSJYYIRAFRPIT-UHFFFAOYSA-N

> <FORMULA>
C9H8N2OS

$$$$
