YVD
  -OEChem-02242320043D

 76 78  0     1  0  0  0  0  0999 V2000
    4.4010    3.7800   -0.1550 C   0  0  0  0  0  0  0  0  0  0  0  0
    4.7800    0.0930    0.2710 C   0  0  0  0  0  0  0  0  0  0  0  0
    5.8260   -1.7360   -1.0370 C   0  0  0  0  0  0  0  0  0  0  0  0
    7.1060   -3.4550   -2.0790 C   0  0  0  0  0  0  0  0  0  0  0  0
    6.9910   -4.4590   -3.2280 C   0  0  0  0  0  0  0  0  0  0  0  0
    5.4230    5.2980    1.2750 C   0  0  0  0  0  0  0  0  0  0  0  0
   -3.0150   -4.3730    1.0720 C   0  0  0  0  0  0  0  0  0  0  0  0
   -2.2210   -2.5560   -0.2730 C   0  0  0  0  0  0  0  0  0  0  0  0
   -0.7960   -3.5290    1.3880 C   0  0  0  0  0  0  0  0  0  0  0  0
   -2.4300   -0.0460    1.1430 C   0  0  0  0  0  0  0  0  0  0  0  0
   -0.0320   -0.3720    0.8600 C   0  0  1  0  0  0  0  0  0  0  0  0
    0.0900   -1.6370    0.0090 C   0  0  0  0  0  0  0  0  0  0  0  0
    3.5280    0.9600    0.4180 C   0  0  2  0  0  0  0  0  0  0  0  0
    3.7630    2.0170    1.4980 C   0  0  0  0  0  0  0  0  0  0  0  0
    4.8620    2.9780    1.0410 C   0  0  2  0  0  0  0  0  0  0  0  0
    4.5920   -0.8820   -0.8920 C   0  0  0  0  0  0  0  0  0  0  0  0
    1.1330    0.5400    0.5730 C   0  0  0  0  0  0  0  0  0  0  0  0
    5.1370    4.0420    2.1290 C   0  0  0  0  0  0  0  0  0  0  0  0
   -3.2270   -3.4400    0.0700 C   0  0  0  0  0  0  0  0  0  0  0  0
   -1.0060   -2.6020    0.3840 C   0  0  0  0  0  0  0  0  0  0  0  0
   -1.7990   -4.4140    1.7320 C   0  0  0  0  0  0  0  0  0  0  0  0
   -3.7170    0.6620    0.8080 C   0  0  1  0  0  0  0  0  0  0  0  0
   -4.2800    0.1070   -0.5020 C   0  0  0  0  0  0  0  0  0  0  0  0
   -7.7380    2.3470   -1.6310 C   0  0  0  0  0  0  0  0  0  0  0  0
   -6.4840    2.7410   -2.0670 C   0  0  0  0  0  0  0  0  0  0  0  0
   -5.3660    2.0160   -1.7010 C   0  0  0  0  0  0  0  0  0  0  0  0
   -5.5000    0.8970   -0.9000 C   0  0  0  0  0  0  0  0  0  0  0  0
   -6.7510    0.5030   -0.4640 C   0  0  0  0  0  0  0  0  0  0  0  0
   -7.8700    1.2300   -0.8250 C   0  0  0  0  0  0  0  0  0  0  0  0
   -3.9970   -5.2380    1.4070 F   0  0  0  0  0  0  0  0  0  0  0  0
   -8.8310    3.0560   -1.9890 F   0  0  0  0  0  0  0  0  0  0  0  0
   -1.2830    0.3170    0.5350 N   0  0  0  0  0  0  0  0  0  0  0  0
    2.3920    0.1160    0.7980 N   0  0  0  0  0  0  0  0  0  0  0  0
    4.7270    5.0750    0.0030 N   0  0  0  0  0  0  0  0  0  0  0  0
   -4.6890    0.4480    1.8890 N   0  0  0  0  0  0  0  0  0  0  0  0
   -2.4260   -0.9440    1.9590 O   0  0  0  0  0  0  0  0  0  0  0  0
    3.8250    3.3220   -1.1190 O   0  0  0  0  0  0  0  0  0  0  0  0
    5.8870   -2.6690   -1.9990 O   0  0  0  0  0  0  0  0  0  0  0  0
    6.7590   -1.5800   -0.2850 O   0  0  0  0  0  0  0  0  0  0  0  0
    0.9370    1.6560    0.1400 O   0  0  0  0  0  0  0  0  0  0  0  0
    5.6420    0.7300    0.0760 H   0  0  0  0  0  0  0  0  0  0  0  0
    4.9440   -0.4670    1.1920 H   0  0  0  0  0  0  0  0  0  0  0  0
    7.2550   -3.9910   -1.1420 H   0  0  0  0  0  0  0  0  0  0  0  0
    7.9530   -2.7930   -2.2580 H   0  0  0  0  0  0  0  0  0  0  0  0
    7.9060   -5.0480   -3.2880 H   0  0  0  0  0  0  0  0  0  0  0  0
    6.1440   -5.1200   -3.0490 H   0  0  0  0  0  0  0  0  0  0  0  0
    6.8420   -3.9230   -4.1650 H   0  0  0  0  0  0  0  0  0  0  0  0
    5.0350    6.1900    1.7660 H   0  0  0  0  0  0  0  0  0  0  0  0
    6.4950    5.3960    1.1060 H   0  0  0  0  0  0  0  0  0  0  0  0
   -2.3860   -1.8280   -1.0540 H   0  0  0  0  0  0  0  0  0  0  0  0
    0.1530   -3.5620    1.9030 H   0  0  0  0  0  0  0  0  0  0  0  0
   -0.0300   -0.6430    1.9160 H   0  0  0  0  0  0  0  0  0  0  0  0
   -0.0020   -1.3760   -1.0460 H   0  0  0  0  0  0  0  0  0  0  0  0
    1.0590   -2.1020    0.1850 H   0  0  0  0  0  0  0  0  0  0  0  0
    3.3130    1.4510   -0.5310 H   0  0  0  0  0  0  0  0  0  0  0  0
    2.8410    2.5740    1.6680 H   0  0  0  0  0  0  0  0  0  0  0  0
    4.0690    1.5290    2.4240 H   0  0  0  0  0  0  0  0  0  0  0  0
    5.7730    2.4280    0.8040 H   0  0  0  0  0  0  0  0  0  0  0  0
    3.7300   -1.5200   -0.6970 H   0  0  0  0  0  0  0  0  0  0  0  0
    4.4290   -0.3220   -1.8130 H   0  0  0  0  0  0  0  0  0  0  0  0
    6.0050    3.7740    2.7310 H   0  0  0  0  0  0  0  0  0  0  0  0
    4.2590    4.1890    2.7570 H   0  0  0  0  0  0  0  0  0  0  0  0
   -4.1760   -3.4040   -0.4430 H   0  0  0  0  0  0  0  0  0  0  0  0
   -1.6350   -5.1380    2.5170 H   0  0  0  0  0  0  0  0  0  0  0  0
   -3.5260    1.7300    0.6980 H   0  0  0  0  0  0  0  0  0  0  0  0
   -3.5250    0.1850   -1.2840 H   0  0  0  0  0  0  0  0  0  0  0  0
   -4.5540   -0.9390   -0.3640 H   0  0  0  0  0  0  0  0  0  0  0  0
   -6.3800    3.6150   -2.6930 H   0  0  0  0  0  0  0  0  0  0  0  0
   -4.3880    2.3230   -2.0410 H   0  0  0  0  0  0  0  0  0  0  0  0
   -6.8540   -0.3720    0.1610 H   0  0  0  0  0  0  0  0  0  0  0  0
   -8.8470    0.9220   -0.4840 H   0  0  0  0  0  0  0  0  0  0  0  0
   -1.2870    1.0350   -0.1180 H   0  0  0  0  0  0  0  0  0  0  0  0
    2.5460   -0.7470    1.2120 H   0  0  0  0  0  0  0  0  0  0  0  0
    4.5230    5.7730   -0.6400 H   0  0  0  0  0  0  0  0  0  0  0  0
   -5.5390    0.9660    1.7190 H   0  0  0  0  0  0  0  0  0  0  0  0
   -4.8830   -0.5350    2.0110 H   0  0  0  0  0  0  0  0  0  0  0  0
  6 34  1  0  0  0  0
  6 18  1  0  0  0  0
  1 34  1  0  0  0  0
 15 18  1  0  0  0  0
  1 37  2  0  0  0  0
  1 15  1  0  0  0  0
  4  5  1  0  0  0  0
  4 38  1  0  0  0  0
  3 39  2  0  0  0  0
 14 15  1  0  0  0  0
 13 14  1  0  0  0  0
  3 38  1  0  0  0  0
  3 16  1  0  0  0  0
  2 13  1  0  0  0  0
 13 33  1  0  0  0  0
  2 16  1  0  0  0  0
 17 40  2  0  0  0  0
 17 33  1  0  0  0  0
 11 17  1  0  0  0  0
 22 35  1  0  0  0  0
 10 22  1  0  0  0  0
 22 23  1  0  0  0  0
 10 36  2  0  0  0  0
 10 32  1  0  0  0  0
 11 32  1  0  0  0  0
 11 12  1  0  0  0  0
 23 27  1  0  0  0  0
 12 20  1  0  0  0  0
 26 27  2  0  0  0  0
 27 28  1  0  0  0  0
 25 26  1  0  0  0  0
  8 20  2  0  0  0  0
  9 20  1  0  0  0  0
  8 19  1  0  0  0  0
 28 29  2  0  0  0  0
  9 21  2  0  0  0  0
 24 25  2  0  0  0  0
  7 19  2  0  0  0  0
 24 29  1  0  0  0  0
 24 31  1  0  0  0  0
  7 21  1  0  0  0  0
  7 30  1  0  0  0  0
  2 41  1  0  0  0  0
  2 42  1  0  0  0  0
  4 43  1  0  0  0  0
  4 44  1  0  0  0  0
  5 45  1  0  0  0  0
  5 46  1  0  0  0  0
  5 47  1  0  0  0  0
  6 48  1  0  0  0  0
  6 49  1  0  0  0  0
  8 50  1  0  0  0  0
  9 51  1  0  0  0  0
 11 52  1  0  0  0  0
 12 53  1  0  0  0  0
 12 54  1  0  0  0  0
 13 55  1  0  0  0  0
 14 56  1  0  0  0  0
 14 57  1  0  0  0  0
 15 58  1  0  0  0  0
 16 59  1  0  0  0  0
 16 60  1  0  0  0  0
 18 61  1  0  0  0  0
 18 62  1  0  0  0  0
 19 63  1  0  0  0  0
 21 64  1  0  0  0  0
 22 65  1  0  0  0  0
 23 66  1  0  0  0  0
 23 67  1  0  0  0  0
 25 68  1  0  0  0  0
 26 69  1  0  0  0  0
 28 70  1  0  0  0  0
 29 71  1  0  0  0  0
 32 72  1  0  0  0  0
 33 73  1  0  0  0  0
 34 74  1  0  0  0  0
 35 75  1  0  0  0  0
 35 76  1  0  0  0  0
M  END
> <OPENEYE_ISO_SMILES>
CCOC(=O)CC[C@H](C[C@@H]1CCNC1=O)NC(=O)[C@H](Cc2ccc(cc2)F)NC(=O)[C@@H](Cc3ccc(cc3)F)N

> <OPENEYE_INCHI>
InChI=1S/C29H36F2N4O5/c1-2-40-26(36)12-11-23(17-20-13-14-33-27(20)37)34-29(39)25(16-19-5-9-22(31)10-6-19)35-28(38)24(32)15-18-3-7-21(30)8-4-18/h3-10,20,23-25H,2,11-17,32H2,1H3,(H,33,37)(H,34,39)(H,35,38)/t20-,23+,24+,25-/m0/s1

> <OPENEYE_INCHIKEY>
WOTTZMBQRDTTCI-KTJVCJKDSA-N

> <FORMULA>
C29H36F2N4O5

$$$$
