R8H
  -OEChem-02242320033D

 66 69  0     1  0  0  0  0  0999 V2000
    1.9520   -1.6460    0.3610 N   0  0  0  0  0  0  0  0  0  0  0  0
   -6.3150   -0.6700   -0.6790 N   0  0  0  0  0  0  0  0  0  0  0  0
    0.7360    2.9050   -2.2840 C   0  0  0  0  0  0  0  0  0  0  0  0
    1.7570    2.4870   -3.1160 C   0  0  0  0  0  0  0  0  0  0  0  0
    2.9410    2.0210   -2.5760 C   0  0  0  0  0  0  0  0  0  0  0  0
    3.1050    1.9740   -1.2040 C   0  0  0  0  0  0  0  0  0  0  0  0
    2.0830    2.3920   -0.3720 C   0  0  0  0  0  0  0  0  0  0  0  0
    1.1460   -0.8070    1.2560 C   0  0  1  0  0  0  0  0  0  0  0  0
    1.8660   -2.9440    0.7000 C   0  0  0  0  0  0  0  0  0  0  0  0
    4.1800   -0.9830   -0.3350 C   0  0  0  0  0  0  0  0  0  0  0  0
    6.4470   -1.7520   -0.3740 C   0  0  0  0  0  0  0  0  0  0  0  0
    4.5500    0.0650    0.4870 C   0  0  0  0  0  0  0  0  0  0  0  0
   -3.1570    1.4320    1.5610 C   0  0  0  0  0  0  0  0  0  0  0  0
   -4.5960   -0.4660    1.0450 C   0  0  0  0  0  0  0  0  0  0  0  0
   -4.5390   -2.2040   -0.7470 C   0  0  0  0  0  0  0  0  0  0  0  0
   -6.2790   -2.2980   -2.3720 C   0  0  0  0  0  0  0  0  0  0  0  0
   -3.2600    1.1530    2.7370 O   0  0  0  0  0  0  0  0  0  0  0  0
   -3.7860    0.6840    0.6330 N   0  0  0  0  0  0  0  0  0  0  0  0
   -5.1860   -1.1270   -0.1730 C   0  0  0  0  0  0  0  0  0  0  0  0
   -6.8690   -1.2170   -1.7440 C   0  0  0  0  0  0  0  0  0  0  0  0
   -5.0910   -2.8060   -1.8680 C   0  0  0  0  0  0  0  0  0  0  0  0
   -2.3250    2.6140    1.1370 C   0  0  1  0  0  0  0  0  0  0  0  0
   -1.8600    3.3090    2.2960 O   0  0  0  0  0  0  0  0  0  0  0  0
   -1.1260    2.1280    0.3200 C   0  0  1  0  0  0  0  0  0  0  0  0
   -0.2150    3.3130   -0.0040 C   0  0  0  0  0  0  0  0  0  0  0  0
    0.8990    2.8580   -0.9120 C   0  0  0  0  0  0  0  0  0  0  0  0
   -0.3780    1.1340    1.0940 N   0  0  0  0  0  0  0  0  0  0  0  0
    0.3760    0.2150    0.4600 C   0  0  0  0  0  0  0  0  0  0  0  0
    0.4360    0.2100   -0.7520 O   0  0  0  0  0  0  0  0  0  0  0  0
    2.4350   -3.8500    0.1280 O   0  0  0  0  0  0  0  0  0  0  0  0
    0.9580   -3.1100    1.8980 C   0  0  0  0  0  0  0  0  0  0  0  0
    0.1750   -1.7760    1.9660 C   0  0  0  0  0  0  0  0  0  0  0  0
    2.7430   -1.1360   -0.7620 C   0  0  0  0  0  0  0  0  0  0  0  0
    5.8680    0.2050    0.8780 C   0  0  0  0  0  0  0  0  0  0  0  0
    6.8170   -0.7030    0.4470 C   0  0  0  0  0  0  0  0  0  0  0  0
    5.1300   -1.8880   -0.7700 C   0  0  0  0  0  0  0  0  0  0  0  0
   -0.1880    3.2730   -2.7050 H   0  0  0  0  0  0  0  0  0  0  0  0
    1.6300    2.5230   -4.1880 H   0  0  0  0  0  0  0  0  0  0  0  0
    3.7390    1.6930   -3.2260 H   0  0  0  0  0  0  0  0  0  0  0  0
    4.0300    1.6090   -0.7830 H   0  0  0  0  0  0  0  0  0  0  0  0
    2.2100    2.3550    0.7000 H   0  0  0  0  0  0  0  0  0  0  0  0
    1.7860   -0.3120    1.9860 H   0  0  0  0  0  0  0  0  0  0  0  0
    7.1890   -2.4600   -0.7140 H   0  0  0  0  0  0  0  0  0  0  0  0
    3.8080    0.7750    0.8230 H   0  0  0  0  0  0  0  0  0  0  0  0
   -3.9670   -1.1800    1.5780 H   0  0  0  0  0  0  0  0  0  0  0  0
   -5.3980   -0.1290    1.7010 H   0  0  0  0  0  0  0  0  0  0  0  0
   -3.6150   -2.5730   -0.3280 H   0  0  0  0  0  0  0  0  0  0  0  0
   -6.7370   -2.7410   -3.2430 H   0  0  0  0  0  0  0  0  0  0  0  0
   -3.7040    0.9070   -0.3070 H   0  0  0  0  0  0  0  0  0  0  0  0
   -7.7950   -0.8160   -2.1300 H   0  0  0  0  0  0  0  0  0  0  0  0
   -4.6080   -3.6490   -2.3380 H   0  0  0  0  0  0  0  0  0  0  0  0
   -2.9310    3.2860    0.5300 H   0  0  0  0  0  0  0  0  0  0  0  0
   -1.3120    2.7720    2.8850 H   0  0  0  0  0  0  0  0  0  0  0  0
   -1.4780    1.6760   -0.6080 H   0  0  0  0  0  0  0  0  0  0  0  0
   -0.7940    4.0910   -0.5020 H   0  0  0  0  0  0  0  0  0  0  0  0
    0.2080    3.7100    0.9190 H   0  0  0  0  0  0  0  0  0  0  0  0
   -0.4260    1.1380    2.0630 H   0  0  0  0  0  0  0  0  0  0  0  0
    0.2710   -3.9420    1.7440 H   0  0  0  0  0  0  0  0  0  0  0  0
    1.5450   -3.2640    2.8030 H   0  0  0  0  0  0  0  0  0  0  0  0
    0.0110   -1.4750    3.0010 H   0  0  0  0  0  0  0  0  0  0  0  0
   -0.7700   -1.8460    1.4270 H   0  0  0  0  0  0  0  0  0  0  0  0
    2.6840   -1.8350   -1.5960 H   0  0  0  0  0  0  0  0  0  0  0  0
    2.3510   -0.1670   -1.0710 H   0  0  0  0  0  0  0  0  0  0  0  0
    6.1570    1.0250    1.5190 H   0  0  0  0  0  0  0  0  0  0  0  0
    7.8470   -0.5940    0.7530 H   0  0  0  0  0  0  0  0  0  0  0  0
    4.8420   -2.7050   -1.4160 H   0  0  0  0  0  0  0  0  0  0  0  0
  2 20  2  0  0  0  0
  2 19  1  0  0  0  0
 16 20  1  0  0  0  0
 14 19  1  0  0  0  0
 14 18  1  0  0  0  0
 15 19  2  0  0  0  0
 16 21  2  0  0  0  0
 13 18  1  0  0  0  0
 13 17  2  0  0  0  0
 15 21  1  0  0  0  0
 13 22  1  0  0  0  0
 22 23  1  0  0  0  0
 22 24  1  0  0  0  0
 24 25  1  0  0  0  0
 24 27  1  0  0  0  0
 28 29  2  0  0  0  0
 25 26  1  0  0  0  0
 27 28  1  0  0  0  0
  8 28  1  0  0  0  0
  8 32  1  0  0  0  0
 31 32  1  0  0  0  0
  3 26  2  0  0  0  0
  3  4  1  0  0  0  0
  7 26  1  0  0  0  0
  1  8  1  0  0  0  0
  9 31  1  0  0  0  0
 12 34  2  0  0  0  0
 34 35  1  0  0  0  0
  4  5  2  0  0  0  0
 10 12  1  0  0  0  0
  1  9  1  0  0  0  0
  1 33  1  0  0  0  0
 11 35  2  0  0  0  0
  6  7  2  0  0  0  0
  9 30  2  0  0  0  0
 10 33  1  0  0  0  0
 10 36  2  0  0  0  0
 11 36  1  0  0  0  0
  5  6  1  0  0  0  0
  3 37  1  0  0  0  0
  4 38  1  0  0  0  0
  5 39  1  0  0  0  0
  6 40  1  0  0  0  0
  7 41  1  0  0  0  0
  8 42  1  0  0  0  0
 11 43  1  0  0  0  0
 12 44  1  0  0  0  0
 14 45  1  0  0  0  0
 14 46  1  0  0  0  0
 15 47  1  0  0  0  0
 16 48  1  0  0  0  0
 18 49  1  0  0  0  0
 20 50  1  0  0  0  0
 21 51  1  0  0  0  0
 22 52  1  0  0  0  0
 23 53  1  0  0  0  0
 24 54  1  0  0  0  0
 25 55  1  0  0  0  0
 25 56  1  0  0  0  0
 27 57  1  0  0  0  0
 31 58  1  0  0  0  0
 31 59  1  0  0  0  0
 32 60  1  0  0  0  0
 32 61  1  0  0  0  0
 33 62  1  0  0  0  0
 33 63  1  0  0  0  0
 34 64  1  0  0  0  0
 35 65  1  0  0  0  0
 36 66  1  0  0  0  0
M  END
> <OPENEYE_ISO_SMILES>
c1ccc(cc1)C[C@H]([C@@H](C(=O)NCc2ccccn2)O)NC(=O)[C@H]3CCC(=O)N3Cc4ccccc4

> <OPENEYE_INCHI>
InChI=1S/C28H30N4O4/c33-25-15-14-24(32(25)19-21-11-5-2-6-12-21)27(35)31-23(17-20-9-3-1-4-10-20)26(34)28(36)30-18-22-13-7-8-16-29-22/h1-13,16,23-24,26,34H,14-15,17-19H2,(H,30,36)(H,31,35)/t23-,24-,26+/m1/s1

> <OPENEYE_INCHIKEY>
LGWQYJCCERJRJX-MZKUHISZSA-N

> <FORMULA>
C28H30N4O4

$$$$
