ENB
  -OEChem-02242320023D

 82 83  0     1  0  0  0  0  0999 V2000
    3.3210    0.6350    0.4680 C   0  0  1  0  0  0  0  0  0  0  0  0
    4.5090   -0.2490    0.7480 C   0  0  0  0  0  0  0  0  0  0  0  0
    2.1000   -0.0230    0.9380 N   0  0  0  0  0  0  0  0  0  0  0  0
    0.9160    0.2610    0.3600 C   0  0  0  0  0  0  0  0  0  0  0  0
   -0.3240   -0.4860    0.7780 C   0  0  1  0  0  0  0  0  0  0  0  0
    0.8490    1.1170   -0.4950 O   0  0  0  0  0  0  0  0  0  0  0  0
   -1.4710    0.0030    0.0090 N   0  0  0  0  0  0  0  0  0  0  0  0
   -0.1360   -1.9590    0.5170 C   0  0  0  0  0  0  0  0  0  0  0  0
   -0.3100   -2.4620   -0.7580 C   0  0  0  0  0  0  0  0  0  0  0  0
   -0.1320   -3.8120   -0.9980 C   0  0  0  0  0  0  0  0  0  0  0  0
    0.2100   -4.6600    0.0390 C   0  0  0  0  0  0  0  0  0  0  0  0
    0.3790   -4.1570    1.3150 C   0  0  0  0  0  0  0  0  0  0  0  0
    0.2060   -2.8060    1.5550 C   0  0  0  0  0  0  0  0  0  0  0  0
   -2.7170   -0.1140    0.5090 C   0  0  0  0  0  0  0  0  0  0  0  0
   -3.8970    0.3900   -0.2830 C   0  0  1  0  0  0  0  0  0  0  0  0
   -2.8890   -0.6230    1.5960 O   0  0  0  0  0  0  0  0  0  0  0  0
   -5.1290    0.1490    0.4710 N   0  0  0  0  0  0  0  0  0  0  0  0
   -6.3050    0.0320   -0.1780 C   0  0  0  0  0  0  0  0  0  0  0  0
   -7.4380   -0.1900    0.5150 O   0  0  0  0  0  0  0  0  0  0  0  0
   -6.3420    0.1270   -1.3890 O   0  0  0  0  0  0  0  0  0  0  0  0
   -8.7040   -0.3150   -0.1840 C   0  0  0  0  0  0  0  0  0  0  0  0
    3.4950    1.9690    1.1980 C   0  0  0  0  0  0  0  0  0  0  0  0
    4.6930    2.7190    0.6110 C   0  0  2  0  0  0  0  0  0  0  0  0
    4.9920    3.9910    1.4370 C   0  0  0  0  0  0  0  0  0  0  0  0
    5.4260    4.9860    0.3380 C   0  0  0  0  0  0  0  0  0  0  0  0
    4.7810    4.5140   -0.8940 N   0  0  0  0  0  0  0  0  0  0  0  0
    4.3660    3.2390   -0.7720 C   0  0  0  0  0  0  0  0  0  0  0  0
    3.8100    2.6030   -1.6420 O   0  0  0  0  0  0  0  0  0  0  0  0
   -3.7390    1.8900   -0.5350 C   0  0  0  0  0  0  0  0  0  0  0  0
   -4.9360    2.4010   -1.3390 C   0  0  0  0  0  0  0  0  0  0  0  0
   -3.6700    2.6280    0.8030 C   0  0  0  0  0  0  0  0  0  0  0  0
   -8.6320   -1.4910   -1.1610 C   0  0  0  0  0  0  0  0  0  0  0  0
   -9.8240   -0.5610    0.8290 C   0  0  0  0  0  0  0  0  0  0  0  0
   -8.9900    0.9740   -0.9570 C   0  0  0  0  0  0  0  0  0  0  0  0
    5.2710   -0.6770   -0.2550 C   0  0  0  0  0  0  0  0  0  0  0  0
    6.4290   -1.5400    0.0180 C   0  0  0  0  0  0  0  0  0  0  0  0
    7.2010   -1.9730   -0.9980 O   0  0  0  0  0  0  0  0  0  0  0  0
    6.6910   -1.8620    1.1610 O   0  0  0  0  0  0  0  0  0  0  0  0
    8.3460   -2.8260   -0.7280 C   0  0  0  0  0  0  0  0  0  0  0  0
    9.0450   -3.1720   -2.0440 C   0  0  0  0  0  0  0  0  0  0  0  0
    3.2470    0.8150   -0.6050 H   0  0  0  0  0  0  0  0  0  0  0  0
    4.7410   -0.5350    1.7630 H   0  0  0  0  0  0  0  0  0  0  0  0
    2.1440   -0.6640    1.6650 H   0  0  0  0  0  0  0  0  0  0  0  0
   -0.5050   -0.3260    1.8410 H   0  0  0  0  0  0  0  0  0  0  0  0
   -1.3340    0.4110   -0.8610 H   0  0  0  0  0  0  0  0  0  0  0  0
   -0.5770   -1.8000   -1.5690 H   0  0  0  0  0  0  0  0  0  0  0  0
   -0.2640   -4.2050   -1.9960 H   0  0  0  0  0  0  0  0  0  0  0  0
    0.3460   -5.7150   -0.1480 H   0  0  0  0  0  0  0  0  0  0  0  0
    0.6460   -4.8190    2.1260 H   0  0  0  0  0  0  0  0  0  0  0  0
    0.3380   -2.4130    2.5520 H   0  0  0  0  0  0  0  0  0  0  0  0
   -3.9460   -0.1360   -1.2360 H   0  0  0  0  0  0  0  0  0  0  0  0
   -5.1000    0.0730    1.4380 H   0  0  0  0  0  0  0  0  0  0  0  0
    2.5940    2.5700    1.0750 H   0  0  0  0  0  0  0  0  0  0  0  0
    3.6660    1.7830    2.2580 H   0  0  0  0  0  0  0  0  0  0  0  0
    5.5690    2.0710    0.5780 H   0  0  0  0  0  0  0  0  0  0  0  0
    4.0960    4.3430    1.9500 H   0  0  0  0  0  0  0  0  0  0  0  0
    5.8010    3.8150    2.1450 H   0  0  0  0  0  0  0  0  0  0  0  0
    5.0820    5.9910    0.5810 H   0  0  0  0  0  0  0  0  0  0  0  0
    6.5100    4.9740    0.2250 H   0  0  0  0  0  0  0  0  0  0  0  0
    4.6700    5.0510   -1.6940 H   0  0  0  0  0  0  0  0  0  0  0  0
   -2.8220    2.0700   -1.0960 H   0  0  0  0  0  0  0  0  0  0  0  0
   -4.8240    3.4700   -1.5190 H   0  0  0  0  0  0  0  0  0  0  0  0
   -4.9850    1.8750   -2.2920 H   0  0  0  0  0  0  0  0  0  0  0  0
   -5.8530    2.2220   -0.7780 H   0  0  0  0  0  0  0  0  0  0  0  0
   -2.8170    2.2640    1.3760 H   0  0  0  0  0  0  0  0  0  0  0  0
   -3.5580    3.6980    0.6230 H   0  0  0  0  0  0  0  0  0  0  0  0
   -4.5870    2.4490    1.3640 H   0  0  0  0  0  0  0  0  0  0  0  0
   -8.4290   -2.4090   -0.6100 H   0  0  0  0  0  0  0  0  0  0  0  0
   -9.5830   -1.5850   -1.6860 H   0  0  0  0  0  0  0  0  0  0  0  0
   -7.8350   -1.3150   -1.8830 H   0  0  0  0  0  0  0  0  0  0  0  0
   -9.8750    0.2760    1.5250 H   0  0  0  0  0  0  0  0  0  0  0  0
  -10.7740   -0.6560    0.3040 H   0  0  0  0  0  0  0  0  0  0  0  0
   -9.6200   -1.4800    1.3800 H   0  0  0  0  0  0  0  0  0  0  0  0
   -8.1920    1.1490   -1.6790 H   0  0  0  0  0  0  0  0  0  0  0  0
   -9.9400    0.8790   -1.4820 H   0  0  0  0  0  0  0  0  0  0  0  0
   -9.0400    1.8110   -0.2610 H   0  0  0  0  0  0  0  0  0  0  0  0
    5.0390   -0.3910   -1.2700 H   0  0  0  0  0  0  0  0  0  0  0  0
    8.0100   -3.7420   -0.2430 H   0  0  0  0  0  0  0  0  0  0  0  0
    9.0420   -2.3020   -0.0730 H   0  0  0  0  0  0  0  0  0  0  0  0
    9.9040   -3.8120   -1.8410 H   0  0  0  0  0  0  0  0  0  0  0  0
    8.3490   -3.6960   -2.6990 H   0  0  0  0  0  0  0  0  0  0  0  0
    9.3810   -2.2560   -2.5290 H   0  0  0  0  0  0  0  0  0  0  0  0
  1  2  1  0  0  0  0
  1  3  1  0  0  0  0
  1 22  1  0  0  0  0
  1 41  1  0  0  0  0
  2 35  2  0  0  0  0
  2 42  1  0  0  0  0
  3  4  1  0  0  0  0
  3 43  1  0  0  0  0
  4  5  1  0  0  0  0
  4  6  2  0  0  0  0
  5  7  1  0  0  0  0
  5  8  1  0  0  0  0
  5 44  1  0  0  0  0
  7 14  1  0  0  0  0
  7 45  1  0  0  0  0
  8  9  1  0  0  0  0
  8 13  2  0  0  0  0
  9 10  2  0  0  0  0
  9 46  1  0  0  0  0
 10 11  1  0  0  0  0
 10 47  1  0  0  0  0
 11 12  2  0  0  0  0
 11 48  1  0  0  0  0
 12 13  1  0  0  0  0
 12 49  1  0  0  0  0
 13 50  1  0  0  0  0
 14 15  1  0  0  0  0
 14 16  2  0  0  0  0
 15 17  1  0  0  0  0
 15 29  1  0  0  0  0
 15 51  1  0  0  0  0
 17 18  1  0  0  0  0
 17 52  1  0  0  0  0
 18 19  1  0  0  0  0
 18 20  2  0  0  0  0
 19 21  1  0  0  0  0
 21 32  1  0  0  0  0
 21 33  1  0  0  0  0
 21 34  1  0  0  0  0
 22 23  1  0  0  0  0
 22 53  1  0  0  0  0
 22 54  1  0  0  0  0
 23 24  1  0  0  0  0
 23 27  1  0  0  0  0
 23 55  1  0  0  0  0
 24 25  1  0  0  0  0
 24 56  1  0  0  0  0
 24 57  1  0  0  0  0
 25 26  1  0  0  0  0
 25 58  1  0  0  0  0
 25 59  1  0  0  0  0
 26 27  1  0  0  0  0
 26 60  1  0  0  0  0
 27 28  2  0  0  0  0
 29 30  1  0  0  0  0
 29 31  1  0  0  0  0
 29 61  1  0  0  0  0
 30 62  1  0  0  0  0
 30 63  1  0  0  0  0
 30 64  1  0  0  0  0
 31 65  1  0  0  0  0
 31 66  1  0  0  0  0
 31 67  1  0  0  0  0
 32 68  1  0  0  0  0
 32 69  1  0  0  0  0
 32 70  1  0  0  0  0
 33 71  1  0  0  0  0
 33 72  1  0  0  0  0
 33 73  1  0  0  0  0
 34 74  1  0  0  0  0
 34 75  1  0  0  0  0
 34 76  1  0  0  0  0
 35 36  1  0  0  0  0
 35 77  1  0  0  0  0
 36 37  1  0  0  0  0
 36 38  2  0  0  0  0
 37 39  1  0  0  0  0
 39 40  1  0  0  0  0
 39 78  1  0  0  0  0
 39 79  1  0  0  0  0
 40 80  1  0  0  0  0
 40 81  1  0  0  0  0
 40 82  1  0  0  0  0
M  END
> <OPENEYE_ISO_SMILES>
CCOC(=O)/C=C/[C@H](C[C@@H]1CCNC1=O)NC(=O)[C@H](c2ccccc2)NC(=O)[C@H](C(C)C)NC(=O)OC(C)(C)C

> <OPENEYE_INCHI>
InChI=1S/C29H42N4O7/c1-7-39-22(34)14-13-21(17-20-15-16-30-25(20)35)31-27(37)24(19-11-9-8-10-12-19)32-26(36)23(18(2)3)33-28(38)40-29(4,5)6/h8-14,18,20-21,23-24H,7,15-17H2,1-6H3,(H,30,35)(H,31,37)(H,32,36)(H,33,38)/b14-13+/t20-,21+,23-,24-/m0/s1

> <OPENEYE_INCHIKEY>
NUDVEHBHDBJSMD-FORQOIBDSA-N

> <FORMULA>
C29H42N4O7

$$$$
