RW5
  -OEChem-02242320043D

 44 47  0     1  0  0  0  0  0999 V2000
    2.6800   -0.3020   -0.8600 C   0  0  0  0  0  0  0  0  0  0  0  0
    1.5400    0.6510   -1.1090 C   0  0  2  0  0  0  0  0  0  0  0  0
   -2.8030   -1.2730    2.0210 C   0  0  0  0  0  0  0  0  0  0  0  0
   -4.3020   -0.4390    0.4920 C   0  0  0  0  0  0  0  0  0  0  0  0
   -5.1360    0.4680   -1.3820 C   0  0  0  0  0  0  0  0  0  0  0  0
    4.4160   -1.6530   -1.1280 C   0  0  0  0  0  0  0  0  0  0  0  0
    3.4980   -0.8130   -1.7980 C   0  0  0  0  0  0  0  0  0  0  0  0
    2.7280    3.5830    1.0870 C   0  0  0  0  0  0  0  0  0  0  0  0
    2.2570    2.1680    0.7410 C   0  0  1  0  0  0  0  0  0  0  0  0
    0.9790    1.8520    1.5200 C   0  0  0  0  0  0  0  0  0  0  0  0
    0.5300    0.4230    1.1980 C   0  0  0  0  0  0  0  0  0  0  0  0
   -0.7480   -0.1660   -0.8050 C   0  0  0  0  0  0  0  0  0  0  0  0
   -1.9180   -0.4490    0.0570 C   0  0  0  0  0  0  0  0  0  0  0  0
   -3.2190   -0.1470   -0.3720 C   0  0  0  0  0  0  0  0  0  0  0  0
   -3.8050    0.4380   -1.5720 C   0  0  0  0  0  0  0  0  0  0  0  0
    4.1110   -1.5990    0.1810 C   0  0  0  0  0  0  0  0  0  0  0  0
    4.8260   -2.3340    1.2850 C   0  0  0  0  0  0  0  0  0  0  0  0
    1.9780    2.0770   -0.7610 C   0  0  0  0  0  0  0  0  0  0  0  0
    0.3980    0.2860   -0.2590 N   0  0  0  0  0  0  0  0  0  0  0  0
   -5.4440   -0.0420   -0.1500 N   0  0  0  0  0  0  0  0  0  0  0  0
   -4.0420   -0.9970    1.6660 N   0  0  0  0  0  0  0  0  0  0  0  0
   -1.7650   -1.0140    1.2540 N   0  0  0  0  0  0  0  0  0  0  0  0
   -0.8210   -0.3410   -2.0060 O   0  0  0  0  0  0  0  0  0  0  0  0
    3.0560   -0.7820    0.3370 O   0  0  0  0  0  0  0  0  0  0  0  0
    1.2450    0.6020   -2.1570 H   0  0  0  0  0  0  0  0  0  0  0  0
   -2.6320   -1.7270    2.9860 H   0  0  0  0  0  0  0  0  0  0  0  0
   -5.8550    0.8520   -2.0910 H   0  0  0  0  0  0  0  0  0  0  0  0
    5.2150   -2.2240   -1.5790 H   0  0  0  0  0  0  0  0  0  0  0  0
    3.4600   -0.6180   -2.8600 H   0  0  0  0  0  0  0  0  0  0  0  0
    2.9280    3.6480    2.1560 H   0  0  0  0  0  0  0  0  0  0  0  0
    3.6390    3.8080    0.5320 H   0  0  0  0  0  0  0  0  0  0  0  0
    1.9520    4.2990    0.8180 H   0  0  0  0  0  0  0  0  0  0  0  0
    3.0330    1.4520    1.0100 H   0  0  0  0  0  0  0  0  0  0  0  0
    1.1730    1.9400    2.5890 H   0  0  0  0  0  0  0  0  0  0  0  0
    0.1950    2.5530    1.2330 H   0  0  0  0  0  0  0  0  0  0  0  0
    1.2720   -0.2850    1.5660 H   0  0  0  0  0  0  0  0  0  0  0  0
   -0.4310    0.2260    1.6740 H   0  0  0  0  0  0  0  0  0  0  0  0
   -3.2720    0.7820   -2.4460 H   0  0  0  0  0  0  0  0  0  0  0  0
    4.3560   -2.1030    2.2400 H   0  0  0  0  0  0  0  0  0  0  0  0
    4.7700   -3.4070    1.1020 H   0  0  0  0  0  0  0  0  0  0  0  0
    5.8710   -2.0240    1.3100 H   0  0  0  0  0  0  0  0  0  0  0  0
    2.8820    2.3260   -1.3150 H   0  0  0  0  0  0  0  0  0  0  0  0
    1.1840    2.7760   -1.0260 H   0  0  0  0  0  0  0  0  0  0  0  0
   -6.3410   -0.1230    0.2100 H   0  0  0  0  0  0  0  0  0  0  0  0
 16 17  1  0  0  0  0
 16 24  1  0  0  0  0
  6 16  2  0  0  0  0
  1 24  1  0  0  0  0
  6  7  1  0  0  0  0
  1  7  2  0  0  0  0
  1  2  1  0  0  0  0
  2 18  1  0  0  0  0
  9 18  1  0  0  0  0
  2 19  1  0  0  0  0
  8  9  1  0  0  0  0
  9 10  1  0  0  0  0
 12 23  2  0  0  0  0
 12 19  1  0  0  0  0
 11 19  1  0  0  0  0
 10 11  1  0  0  0  0
 12 13  1  0  0  0  0
 13 14  2  0  0  0  0
 13 22  1  0  0  0  0
 14 15  1  0  0  0  0
  5 15  2  0  0  0  0
  4 14  1  0  0  0  0
  3 22  2  0  0  0  0
  5 20  1  0  0  0  0
  4 20  1  0  0  0  0
  4 21  2  0  0  0  0
  3 21  1  0  0  0  0
  2 25  1  0  0  0  0
  3 26  1  0  0  0  0
  5 27  1  0  0  0  0
  6 28  1  0  0  0  0
  7 29  1  0  0  0  0
  8 30  1  0  0  0  0
  8 31  1  0  0  0  0
  8 32  1  0  0  0  0
  9 33  1  0  0  0  0
 10 34  1  0  0  0  0
 10 35  1  0  0  0  0
 11 36  1  0  0  0  0
 11 37  1  0  0  0  0
 15 38  1  0  0  0  0
 17 39  1  0  0  0  0
 17 40  1  0  0  0  0
 17 41  1  0  0  0  0
 18 42  1  0  0  0  0
 18 43  1  0  0  0  0
 20 44  1  0  0  0  0
M  END
> <OPENEYE_ISO_SMILES>
Cc1ccc(o1)[C@@H]2C[C@H](CCN2C(=O)c3c4cc[nH]c4ncn3)C

> <OPENEYE_INCHI>
InChI=1S/C18H20N4O2/c1-11-6-8-22(14(9-11)15-4-3-12(2)24-15)18(23)16-13-5-7-19-17(13)21-10-20-16/h3-5,7,10-11,14H,6,8-9H2,1-2H3,(H,19,20,21)/t11-,14-/m0/s1

> <OPENEYE_INCHIKEY>
ZHFXJVHZUDTZGC-FZMZJTMJSA-N

> <FORMULA>
C18H20N4O2

$$$$
