@<TRIPOS>MOLECULE
/home/pku/3cl/gett_pdb/5S2B/5S2B_mol2/ligand/5S2B_WSG.pdb
 17 18 0 0 0
SMALL
GASTEIGER

@<TRIPOS>ATOM
      1  N1        -0.5400    9.1560   -7.9460 N.ar  201  WSG201     -0.2481
      2  N3         1.7460   10.2310  -10.4410 N.am  201  WSG201     -0.1722
      3  C4         0.7040    9.9820   -9.5350 C.ar  201  WSG201      0.1132
      4  C5         2.5780    9.3150  -11.0100 C.2   201  WSG201      0.2691
      5  C6         3.1930    9.7150  -12.3030 C.ar  201  WSG201      0.0555
      6  C7         2.8170   10.9020  -12.9240 C.ar  201  WSG201      0.0069
      7  C8         3.4070   11.3000  -14.1090 C.ar  201  WSG201      0.0298
      8  C10        4.7880    9.3260  -14.0670 C.ar  201  WSG201      0.0298
      9  C1         0.0080    7.6370   -6.1800 C.3   201  WSG201      0.0284
     10  C2        -1.0870    8.3600   -6.8610 C.3   201  WSG201      0.1276
     11  N2        -1.1390   10.3080   -8.3110 N.ar  201  WSG201     -0.1662
     12  C3        -0.3740   10.8220   -9.2610 C.ar  201  WSG201      0.1382
     13  C9         4.1850    8.9340  -12.8850 C.ar  201  WSG201      0.0069
     14  C11        4.3810   10.5010  -14.6410 C.ar  201  WSG201      0.1401
     15  F1         4.9720   10.8940  -15.8020 F     201  WSG201     -0.2042
     16  O1         2.8160    8.2280  -10.5060 O.2   201  WSG201     -0.2680
     17  C12        0.5990    8.9490   -8.6400 C.ar  201  WSG201      0.1132
@<TRIPOS>BOND
     1    15    14    1
     2    14     7   ar
     3    14     8   ar
     4     7     6   ar
     5     8    13   ar
     6     6     5   ar
     7    13     5   ar
     8     5     4    1
     9     4    16    2
    10     4     2   am
    11     2     3    1
    12     3    12   ar
    13     3    17   ar
    14    12    11   ar
    15    17     1   ar
    16    11     1   ar
    17     1    10    1
    18    10     9    1
