RY4
  -OEChem-02242320043D

 25 25  0     0  0  0  0  0  0999 V2000
   -1.4290   -0.9080   -0.4730 N   0  0  0  0  0  0  0  0  0  0  0  0
    1.7700    0.8790   -0.7550 C   0  0  0  0  0  0  0  0  0  0  0  0
    2.6510   -0.0900   -0.3100 C   0  0  0  0  0  0  0  0  0  0  0  0
    2.1800   -1.3300    0.0800 C   0  0  0  0  0  0  0  0  0  0  0  0
    0.8270   -1.6050    0.0280 C   0  0  0  0  0  0  0  0  0  0  0  0
    4.1280    0.2050   -0.2520 C   0  0  0  0  0  0  0  0  0  0  0  0
   -2.0960    0.3810    1.8560 C   0  0  0  0  0  0  0  0  0  0  0  0
   -0.0600   -0.6330   -0.4180 C   0  0  0  0  0  0  0  0  0  0  0  0
    0.4160    0.6130   -0.8040 C   0  0  0  0  0  0  0  0  0  0  0  0
    4.4630    0.7650    1.0640 N   0  0  0  0  0  0  0  0  0  0  0  0
   -2.2160    1.3910   -0.6100 O   0  0  0  0  0  0  0  0  0  0  0  0
   -3.7780   -0.4420   -0.0440 O   0  0  0  0  0  0  0  0  0  0  0  0
   -2.5190    0.1990    0.1020 S   0  0  0  0  0  0  0  0  0  0  0  0
   -1.7410   -1.7440   -0.8510 H   0  0  0  0  0  0  0  0  0  0  0  0
    2.1420    1.8460   -1.0590 H   0  0  0  0  0  0  0  0  0  0  0  0
    2.8700   -2.0850    0.4270 H   0  0  0  0  0  0  0  0  0  0  0  0
    0.4600   -2.5750    0.3290 H   0  0  0  0  0  0  0  0  0  0  0  0
    4.6890   -0.7160   -0.4090 H   0  0  0  0  0  0  0  0  0  0  0  0
    4.3850    0.9250   -1.0300 H   0  0  0  0  0  0  0  0  0  0  0  0
   -1.1040    0.8240    1.9470 H   0  0  0  0  0  0  0  0  0  0  0  0
   -2.8280    1.0270    2.3410 H   0  0  0  0  0  0  0  0  0  0  0  0
   -2.1020   -0.5980    2.3350 H   0  0  0  0  0  0  0  0  0  0  0  0
   -0.2720    1.3720   -1.1470 H   0  0  0  0  0  0  0  0  0  0  0  0
    4.1750    0.1450    1.8050 H   0  0  0  0  0  0  0  0  0  0  0  0
    5.4490    0.9720    1.1280 H   0  0  0  0  0  0  0  0  0  0  0  0
  7 13  1  0  0  0  0
  1 13  1  0  0  0  0
  1  8  1  0  0  0  0
 11 13  2  0  0  0  0
 12 13  2  0  0  0  0
  5  8  2  0  0  0  0
  4  5  1  0  0  0  0
  8  9  1  0  0  0  0
  3  4  2  0  0  0  0
  2  9  2  0  0  0  0
  2  3  1  0  0  0  0
  3  6  1  0  0  0  0
  6 10  1  0  0  0  0
  1 14  1  0  0  0  0
  2 15  1  0  0  0  0
  4 16  1  0  0  0  0
  5 17  1  0  0  0  0
  6 18  1  0  0  0  0
  6 19  1  0  0  0  0
  7 20  1  0  0  0  0
  7 21  1  0  0  0  0
  7 22  1  0  0  0  0
  9 23  1  0  0  0  0
 10 24  1  0  0  0  0
 10 25  1  0  0  0  0
M  END
> <OPENEYE_ISO_SMILES>
CS(=O)(=O)Nc1ccc(cc1)CN

> <OPENEYE_INCHI>
InChI=1S/C8H12N2O2S/c1-13(11,12)10-8-4-2-7(6-9)3-5-8/h2-5,10H,6,9H2,1H3

> <OPENEYE_INCHIKEY>
IZJVPNBRAKIMBK-UHFFFAOYSA-N

> <FORMULA>
C8H12N2O2S

$$$$
