@<TRIPOS>MOLECULE
/home/pku/3cl/gett_pdb/6W5H/6W5H_mol2/ligand/6W5H_TKP.pdb
 36 38 0 0 0
SMALL
GASTEIGER

@<TRIPOS>ATOM
      1  C29       26.1900   24.5150  -34.8040 C.3   201  TKP201      0.0081
      2  C01       24.2190   25.9550  -35.3390 C.3   201  TKP201      0.0081
      3  C02       24.6790   24.5340  -34.9900 C.3   201  TKP201      0.0594
      4  C03       24.0360   24.0860  -33.6770 C.3   201  TKP201      0.2139
      5  C05       24.0870   22.0270  -32.4810 C.2   201  TKP201      0.4215
      6  C30       24.2930   23.6250  -36.1520 C.ar  201  TKP201     -0.0185
      7  C31       22.9630   23.3020  -36.3350 C.ar  201  TKP201      0.0072
      8  C32       22.5830   22.4830  -37.3810 C.ar  201  TKP201      0.0574
      9  C34       23.5250   21.9910  -38.2590 C.ar  201  TKP201      0.0114
     10  C35       24.8620   22.3130  -38.0790 C.ar  201  TKP201      0.0005
     11  C36       25.2410   23.1280  -37.0260 C.ar  201  TKP201     -0.0041
     12  O04       24.7550   22.9460  -33.2770 O.3   201  TKP201     -0.4332
     13  O28       22.8930   22.0490  -32.3770 O.2   201  TKP201     -0.2246
     14 CL3        20.8500   22.0960  -37.5590 Cl    201  TKP201     -0.0823
     15  N06       24.8990   21.0500  -31.8060 N.am  201  TKP201     -0.1611
     16  C07       24.2470   19.9820  -31.1000 C.3   201  TKP201      0.1761
     17  C15       23.6000   20.4910  -29.8200 C.2   201  TKP201      0.2614
     18  O27       24.1270   21.3710  -29.2190 O.2   201  TKP201     -0.2715
     19  C08       25.2880   18.9520  -30.6820 C.3   201  TKP201      0.0312
     20  C09       25.8740   18.1320  -31.8400 C.3   201  TKP201      0.0022
     21  C10       24.8030   17.1960  -32.3690 C.3   201  TKP201      0.0001
     22  C11       25.3580   16.2380  -33.4050 C.3   201  TKP201      0.0000
     23  C12       26.5390   15.4710  -32.8450 C.3   201  TKP201      0.0000
     24  C13       27.6390   16.3540  -32.2780 C.3   201  TKP201      0.0000
     25  C14       27.0860   17.3810  -31.2960 C.3   201  TKP201      0.0001
     26  O24       18.2140   22.3530  -29.7330 O.2   201  TKP201     -0.2734
     27  C20       19.2160   22.8810  -29.3990 C.2   201  TKP201      0.2410
     28  N21       19.3350   24.3360  -29.0500 N.am  201  TKP201     -0.2054
     29  C22       20.7120   24.6120  -28.7200 C.3   201  TKP201      0.1156
     30  C23       21.3830   23.2380  -28.4770 C.3   201  TKP201      0.0326
     31  C19       20.5330   22.2520  -29.2500 C.3   201  TKP201      0.0818
     32  C18       20.3750   20.9520  -28.4500 C.3   201  TKP201      0.0335
     33  C17       21.7060   20.2580  -28.1340 C.3   201  TKP201      0.1287
     34  N16       22.3670   19.8520  -29.3620 N.am  201  TKP201     -0.2030
     35  C25       21.4350   18.9940  -27.2910 C.3   201  TKP201      0.2036
     36  O26       22.6560   18.4450  -26.8500 O.3   201  TKP201     -0.2185
@<TRIPOS>BOND
     1     9    10   ar
     2     9     8   ar
     3    10    11   ar
     4    14     8    1
     5     8     7   ar
     6    11     6   ar
     7     7     6   ar
     8     6     3    1
     9     2     3    1
    10     3     1    1
    11     3     4    1
    12     4    12    1
    13    22    23    1
    14    22    21    1
    15    12     5    1
    16    23    24    1
    17     5    13    2
    18     5    15   am
    19    21    20    1
    20    24    25    1
    21    20    25    1
    22    20    19    1
    23    15    16    1
    24    16    19    1
    25    16    17    1
    26    17    34   am
    27    17    18    2
    28    26    27    2
    29    27    31    1
    30    27    28   am
    31    34    33    1
    32    31    30    1
    33    31    32    1
    34    28    29    1
    35    29    30    1
    36    32    33    1
    37    33    35    1
    38    35    36    1
