GWP
  -OEChem-02242320023D

 20 21  0     0  0  0  0  0  0999 V2000
   -0.7550    1.3170   -0.0800 N   0  0  0  0  0  0  0  0  0  0  0  0
   -2.4210   -0.5730   -0.4630 C   0  0  0  0  0  0  0  0  0  0  0  0
   -3.6150    0.3070   -0.0870 C   0  0  0  0  0  0  0  0  0  0  0  0
   -3.2430   -0.8910    0.7890 C   0  0  0  0  0  0  0  0  0  0  0  0
    3.3650    0.6640    0.2380 O   0  0  0  0  0  0  0  0  0  0  0  0
    2.5260   -0.1970    0.0560 C   0  0  0  0  0  0  0  0  0  0  0  0
    2.8980   -1.4870   -0.0600 N   0  0  0  0  0  0  0  0  0  0  0  0
    1.1020    0.1710   -0.0370 C   0  0  0  0  0  0  0  0  0  0  0  0
    0.0650   -0.6820   -0.2370 N   0  0  0  0  0  0  0  0  0  0  0  0
   -1.0430    0.0020   -0.2620 C   0  0  0  0  0  0  0  0  0  0  0  0
    0.5860    1.4300    0.0620 C   0  0  0  0  0  0  0  0  0  0  0  0
   -1.3960    2.0450   -0.0600 H   0  0  0  0  0  0  0  0  0  0  0  0
   -2.5340   -1.2360   -1.3210 H   0  0  0  0  0  0  0  0  0  0  0  0
   -3.4030    1.3020    0.3050 H   0  0  0  0  0  0  0  0  0  0  0  0
   -4.5140    0.2240   -0.6980 H   0  0  0  0  0  0  0  0  0  0  0  0
   -3.8960   -1.7630    0.7540 H   0  0  0  0  0  0  0  0  0  0  0  0
   -2.7860   -0.6840    1.7570 H   0  0  0  0  0  0  0  0  0  0  0  0
    3.8350   -1.7290    0.0020 H   0  0  0  0  0  0  0  0  0  0  0  0
    2.2280   -2.1740   -0.2050 H   0  0  0  0  0  0  0  0  0  0  0  0
    1.1420    2.3420    0.2210 H   0  0  0  0  0  0  0  0  0  0  0  0
  2  3  1  0  0  0  0
  3  4  1  0  0  0  0
  2 10  1  0  0  0  0
  2  4  1  0  0  0  0
  1 10  1  0  0  0  0
  1 11  1  0  0  0  0
  9 10  2  0  0  0  0
  8 11  2  0  0  0  0
  8  9  1  0  0  0  0
  6  8  1  0  0  0  0
  5  6  2  0  0  0  0
  6  7  1  0  0  0  0
  1 12  1  0  0  0  0
  2 13  1  0  0  0  0
  3 14  1  0  0  0  0
  3 15  1  0  0  0  0
  4 16  1  0  0  0  0
  4 17  1  0  0  0  0
  7 18  1  0  0  0  0
  7 19  1  0  0  0  0
 11 20  1  0  0  0  0
M  END
> <OPENEYE_ISO_SMILES>
c1c(nc([nH]1)C2CC2)C(=O)N

> <OPENEYE_INCHI>
InChI=1S/C7H9N3O/c8-6(11)5-3-9-7(10-5)4-1-2-4/h3-4H,1-2H2,(H2,8,11)(H,9,10)

> <OPENEYE_INCHIKEY>
ZIJDZTAYMWKMQH-UHFFFAOYSA-N

> <FORMULA>
C7H9N3O

$$$$
