@<TRIPOS>MOLECULE
/home/pku/3cl/gett_pdb/5SQ4/5SQ4_mol2/ligand/5SQ4_QKC.pdb
 41 44 0 0 0
SMALL
GASTEIGER

@<TRIPOS>ATOM
      1  C16      -48.6430  -29.0830    3.4790 C.ar  201  QKC201     -0.0491
      2  C15      -50.0290  -28.9990    3.5940 C.ar  201  QKC201     -0.0257
      3  C14      -50.6370  -28.9960    4.8520 C.ar  201  QKC201      0.1254
      4  C13      -49.8550  -29.0690    5.9960 C.ar  201  QKC201     -0.0025
      5  C12      -48.4460  -29.1510    5.8850 C.ar  201  QKC201      0.0515
      6  C11      -47.8490  -29.1580    4.6450 C.ar  201  QKC201      0.0124
      7  C10      -46.4120  -29.2490    4.8720 C.ar  201  QKC201      0.0663
      8  C19      -46.2540  -29.2920    6.2380 C.ar  201  QKC201      0.1442
      9  C01      -45.1370  -26.3980   -1.5360 C.3   201  QKC201      0.0548
     10  C04      -44.3180  -28.6430    0.3410 C.3   201  QKC201      0.0922
     11  C05      -44.8890  -29.8260   -0.2750 C.3   201  QKC201     -0.0278
     12  C06      -45.0760  -30.9200    0.6620 C.3   201  QKC201     -0.0354
     13  C07      -45.8680  -30.5100    1.9170 C.3   201  QKC201      0.0136
     14  C09      -45.2420  -29.3010    4.0780 C.ar  201  QKC201      0.1344
     15  C21      -43.9490  -29.4260    5.9750 C.ar  201  QKC201      0.1204
     16  C23      -44.0860  -28.7900    1.8680 C.3   201  QKC201      0.0357
     17  F17      -51.9960  -28.9170    4.9550 F     201  QKC201     -0.2054
     18  N08      -45.3170  -29.2700    2.6310 N.pl3 201  QKC201     -0.3127
     19  N18      -47.4720  -29.2330    6.8260 N.ar  201  QKC201     -0.3389
     20  N20      -45.0070  -29.3800    6.7540 N.ar  201  QKC201     -0.2178
     21  N22      -44.0490  -29.3890    4.6530 N.ar  201  QKC201     -0.2200
     22  O03      -45.4270  -26.2360    1.1450 O.2   201  QKC201     -0.1743
     23  O24      -46.8930  -27.6300    0.1320 O.2   201  QKC201     -0.1743
     24  S02      -45.4940  -27.2040    0.0520 S.O2  201  QKC201     -0.0295
     25 H161      -48.1750  -29.0870    2.5000 H     201  QKC201      0.0625
     26 H151      -50.6380  -28.9450    2.7010 H     201  QKC201      0.0646
     27 H131      -50.3150  -29.0670    6.9740 H     201  QKC201      0.0667
     28 H012      -44.2050  -26.7810   -1.9400 H     201  QKC201      0.0464
     29 H011      -45.0500  -25.3270   -1.3780 H     201  QKC201      0.0464
     30 H013      -45.9430  -26.5970   -2.2330 H     201  QKC201      0.0464
     31 H041      -43.3640  -28.4300   -0.1340 H     201  QKC201      0.0551
     32 H051      -44.2230  -30.1560   -1.0620 H     201  QKC201      0.0285
     33 H052      -45.8480  -29.5760   -0.7160 H     201  QKC201      0.0285
     34 H062      -44.1060  -31.3060    0.9590 H     201  QKC201      0.0281
     35 H061      -45.6100  -31.7180    0.1610 H     201  QKC201      0.0281
     36 H071      -45.8450  -31.3420    2.6170 H     201  QKC201      0.0464
     37 H072      -46.9050  -30.3410    1.6480 H     201  QKC201      0.0464
     38 H211      -42.9720  -29.4920    6.4260 H     201  QKC201      0.1048
     39 H232      -43.2850  -29.5100    2.0210 H     201  QKC201      0.0483
     40 H231      -43.7750  -27.8350    2.2770 H     201  QKC201      0.0483
     41 H181      -47.6230  -29.2490    7.8150 H     201  QKC201      0.1673
@<TRIPOS>BOND
     1    30     9    1
     2    28     9    1
     3     9    29    1
     4     9    24    1
     5    32    11    1
     6    33    11    1
     7    11    10    1
     8    11    12    1
     9    31    10    1
    10    24    23    2
    11    24    10    1
    12    24    22    2
    13    35    12    1
    14    10    16    1
    15    12    34    1
    16    12    13    1
    17    37    13    1
    18    16    39    1
    19    16    40    1
    20    16    18    1
    21    13    36    1
    22    13    18    1
    23    25     1    1
    24    18    14    1
    25    26     2    1
    26     1     2   ar
    27     1     6   ar
    28     2     3   ar
    29    14    21   ar
    30    14     7   ar
    31     6     7   ar
    32     6     5   ar
    33    21    15   ar
    34     3    17    1
    35     3     4   ar
    36     7     8   ar
    37     5     4   ar
    38     5    19   ar
    39    15    38    1
    40    15    20   ar
    41     4    27    1
    42     8    20   ar
    43     8    19   ar
    44    19    41    1
