QYJ
  -OEChem-02242320033D

 50 53  0     1  0  0  0  0  0999 V2000
   -3.2980   -0.9770   -0.8000 C   0  0  0  0  0  0  0  0  0  0  0  0
   -1.3270   -2.3110   -1.0920 C   0  0  0  0  0  0  0  0  0  0  0  0
   -2.6960   -2.2170   -0.9890 C   0  0  0  0  0  0  0  0  0  0  0  0
   -0.5400   -1.1590   -1.0050 C   0  0  0  0  0  0  0  0  0  0  0  0
    0.9280   -1.2570   -1.1150 C   0  0  0  0  0  0  0  0  0  0  0  0
    3.1430   -0.2410   -1.1410 C   0  0  2  0  0  0  0  0  0  0  0  0
    3.7450   -0.6310    0.1920 C   0  0  0  0  0  0  0  0  0  0  0  0
    3.3450   -1.5870    1.1120 C   0  0  0  0  0  0  0  0  0  0  0  0
   -5.2440    0.0230    0.1240 C   0  0  0  0  0  0  0  0  0  0  0  0
    2.8680    2.2480   -0.9570 C   0  0  0  0  0  0  0  0  0  0  0  0
    3.7500    1.1390   -1.4700 C   0  0  1  0  0  0  0  0  0  0  0  0
    5.0890    1.1030   -0.7020 C   0  0  0  0  0  0  0  0  0  0  0  0
    4.8630    0.1410    0.4440 C   0  0  0  0  0  0  0  0  0  0  0  0
    5.5810   -0.0440    1.6190 C   0  0  0  0  0  0  0  0  0  0  0  0
    5.1770   -1.0020    2.5360 C   0  0  0  0  0  0  0  0  0  0  0  0
    4.0590   -1.7720    2.2810 C   0  0  0  0  0  0  0  0  0  0  0  0
   -7.1890    1.0420    1.1800 C   0  0  0  0  0  0  0  0  0  0  0  0
   -8.3030    0.5590    2.1100 C   0  0  0  0  0  0  0  0  0  0  0  0
   -8.6390    1.4450    0.9100 C   0  0  0  0  0  0  0  0  0  0  0  0
   -2.5170    0.1720   -0.7130 C   0  0  0  0  0  0  0  0  0  0  0  0
   -1.1470    0.0850   -0.8150 C   0  0  0  0  0  0  0  0  0  0  0  0
    1.6860   -0.1450   -1.0320 N   0  0  0  0  0  0  0  0  0  0  0  0
   -4.6850   -0.8840   -0.7020 N   0  0  0  0  0  0  0  0  0  0  0  0
   -6.5820    0.0560    0.2820 N   0  0  0  0  0  0  0  0  0  0  0  0
    2.9690    2.6200    0.1880 O   0  0  0  0  0  0  0  0  0  0  0  0
    6.6800    0.7140    1.8690 O   0  0  0  0  0  0  0  0  0  0  0  0
   -4.5400    0.8110    0.7260 O   0  0  0  0  0  0  0  0  0  0  0  0
    1.4550   -2.3400   -1.2810 O   0  0  0  0  0  0  0  0  0  0  0  0
    1.9700    2.8230   -1.7730 O   0  0  0  0  0  0  0  0  0  0  0  0
   -0.8610   -3.2740   -1.2380 H   0  0  0  0  0  0  0  0  0  0  0  0
   -3.3050   -3.1070   -1.0550 H   0  0  0  0  0  0  0  0  0  0  0  0
    3.4170   -0.9670   -1.9060 H   0  0  0  0  0  0  0  0  0  0  0  0
    2.4720   -2.1900    0.9140 H   0  0  0  0  0  0  0  0  0  0  0  0
    3.9180    1.2430   -2.5420 H   0  0  0  0  0  0  0  0  0  0  0  0
    5.8870    0.7390   -1.3500 H   0  0  0  0  0  0  0  0  0  0  0  0
    5.3340    2.0950   -0.3230 H   0  0  0  0  0  0  0  0  0  0  0  0
    5.7350   -1.1460    3.4490 H   0  0  0  0  0  0  0  0  0  0  0  0
    3.7420   -2.5180    2.9940 H   0  0  0  0  0  0  0  0  0  0  0  0
   -6.5150    1.8110    1.5590 H   0  0  0  0  0  0  0  0  0  0  0  0
   -8.5850   -0.4930    2.0540 H   0  0  0  0  0  0  0  0  0  0  0  0
   -8.3630    1.0090    3.1010 H   0  0  0  0  0  0  0  0  0  0  0  0
   -8.9200    2.4790    1.1100 H   0  0  0  0  0  0  0  0  0  0  0  0
   -9.1420    0.9770    0.0640 H   0  0  0  0  0  0  0  0  0  0  0  0
   -2.9870    1.1340   -0.5670 H   0  0  0  0  0  0  0  0  0  0  0  0
   -0.5420    0.9770   -0.7480 H   0  0  0  0  0  0  0  0  0  0  0  0
    1.2650    0.7190   -0.9000 H   0  0  0  0  0  0  0  0  0  0  0  0
   -5.2490   -1.4720   -1.2290 H   0  0  0  0  0  0  0  0  0  0  0  0
   -7.1430   -0.5720   -0.1980 H   0  0  0  0  0  0  0  0  0  0  0  0
    6.4920    1.5340    2.3450 H   0  0  0  0  0  0  0  0  0  0  0  0
    1.4270    3.5300   -1.3990 H   0  0  0  0  0  0  0  0  0  0  0  0
 10 25  2  0  0  0  0
 11 12  1  0  0  0  0
 12 13  1  0  0  0  0
 13 14  2  0  0  0  0
 14 26  1  0  0  0  0
 14 15  1  0  0  0  0
 15 16  2  0  0  0  0
  8 16  1  0  0  0  0
  7  8  2  0  0  0  0
  6  7  1  0  0  0  0
  6 22  1  0  0  0  0
  5 22  1  0  0  0  0
  2  4  2  0  0  0  0
  2  3  1  0  0  0  0
  1  3  2  0  0  0  0
  9 23  1  0  0  0  0
 17 24  1  0  0  0  0
 17 18  1  0  0  0  0
 18 19  1  0  0  0  0
  9 24  1  0  0  0  0
  9 27  2  0  0  0  0
  1 23  1  0  0  0  0
  1 20  1  0  0  0  0
 20 21  2  0  0  0  0
  4  5  1  0  0  0  0
  5 28  2  0  0  0  0
 10 11  1  0  0  0  0
 10 29  1  0  0  0  0
  6 11  1  0  0  0  0
  7 13  1  0  0  0  0
  4 21  1  0  0  0  0
 17 19  1  0  0  0  0
  2 30  1  0  0  0  0
  3 31  1  0  0  0  0
  6 32  1  0  0  0  0
  8 33  1  0  0  0  0
 11 34  1  0  0  0  0
 12 35  1  0  0  0  0
 12 36  1  0  0  0  0
 15 37  1  0  0  0  0
 16 38  1  0  0  0  0
 17 39  1  0  0  0  0
 18 40  1  0  0  0  0
 18 41  1  0  0  0  0
 19 42  1  0  0  0  0
 19 43  1  0  0  0  0
 20 44  1  0  0  0  0
 21 45  1  0  0  0  0
 22 46  1  0  0  0  0
 23 47  1  0  0  0  0
 24 48  1  0  0  0  0
 26 49  1  0  0  0  0
 29 50  1  0  0  0  0
M  END
> <OPENEYE_ISO_SMILES>
c1cc2c(c(c1)O)C[C@@H]([C@@H]2NC(=O)c3ccc(cc3)NC(=O)NC4CC4)C(=O)O

> <OPENEYE_INCHI>
InChI=1S/C21H21N3O5/c25-17-3-1-2-14-15(17)10-16(20(27)28)18(14)24-19(26)11-4-6-12(7-5-11)22-21(29)23-13-8-9-13/h1-7,13,16,18,25H,8-10H2,(H,24,26)(H,27,28)(H2,22,23,29)/t16-,18+/m0/s1

> <OPENEYE_INCHIKEY>
HULQKGAWTDMSSA-FUHWJXTLSA-N

> <FORMULA>
C21H21N3O5

$$$$
