WQY
  -OEChem-02242320043D

 22 23  0     0  0  0  0  0  0999 V2000
    0.0280   -1.6960   -0.0400 N   0  0  0  0  0  0  0  0  0  0  0  0
   -1.6500    1.5530   -0.0640 C   0  0  0  0  0  0  0  0  0  0  0  0
   -2.9410    1.1490    0.0910 C   0  0  0  0  0  0  0  0  0  0  0  0
   -3.2580   -0.2040    0.2040 C   0  0  0  0  0  0  0  0  0  0  0  0
   -2.2890   -1.1580    0.1630 C   0  0  0  0  0  0  0  0  0  0  0  0
   -0.9440   -0.7800    0.0040 C   0  0  0  0  0  0  0  0  0  0  0  0
    3.7340    0.5370    0.8460 N   0  0  0  0  0  0  0  0  0  0  0  0
    3.1220    0.3400   -0.4750 C   0  0  0  0  0  0  0  0  0  0  0  0
    1.6670   -0.0150   -0.3060 C   0  0  0  0  0  0  0  0  0  0  0  0
    1.2840   -1.3490   -0.1880 C   0  0  0  0  0  0  0  0  0  0  0  0
   -0.6240    0.5950   -0.1100 C   0  0  0  0  0  0  0  0  0  0  0  0
    0.7230    0.9710   -0.2690 C   0  0  0  0  0  0  0  0  0  0  0  0
   -1.4170    2.6040   -0.1500 H   0  0  0  0  0  0  0  0  0  0  0  0
   -3.7300    1.8860    0.1270 H   0  0  0  0  0  0  0  0  0  0  0  0
   -4.2900   -0.4990    0.3260 H   0  0  0  0  0  0  0  0  0  0  0  0
   -2.5530   -2.2020    0.2520 H   0  0  0  0  0  0  0  0  0  0  0  0
    3.6120   -0.2800    1.4260 H   0  0  0  0  0  0  0  0  0  0  0  0
    4.7110    0.7760    0.7600 H   0  0  0  0  0  0  0  0  0  0  0  0
    3.2070    1.2580   -1.0550 H   0  0  0  0  0  0  0  0  0  0  0  0
    3.6350   -0.4680   -0.9970 H   0  0  0  0  0  0  0  0  0  0  0  0
    2.0420   -2.1180   -0.2200 H   0  0  0  0  0  0  0  0  0  0  0  0
    1.0020    2.0110   -0.3590 H   0  0  0  0  0  0  0  0  0  0  0  0
  4  5  2  0  0  0  0
  5  6  1  0  0  0  0
  3  4  1  0  0  0  0
  1  6  2  0  0  0  0
  1 10  1  0  0  0  0
  6 11  1  0  0  0  0
  2  3  2  0  0  0  0
  9 10  2  0  0  0  0
  2 11  1  0  0  0  0
 11 12  2  0  0  0  0
  9 12  1  0  0  0  0
  8  9  1  0  0  0  0
  7  8  1  0  0  0  0
  2 13  1  0  0  0  0
  3 14  1  0  0  0  0
  4 15  1  0  0  0  0
  5 16  1  0  0  0  0
  7 17  1  0  0  0  0
  7 18  1  0  0  0  0
  8 19  1  0  0  0  0
  8 20  1  0  0  0  0
 10 21  1  0  0  0  0
 12 22  1  0  0  0  0
M  END
> <OPENEYE_ISO_SMILES>
c1ccc2c(c1)cc(cn2)CN

> <OPENEYE_INCHI>
InChI=1S/C10H10N2/c11-6-8-5-9-3-1-2-4-10(9)12-7-8/h1-5,7H,6,11H2

> <OPENEYE_INCHIKEY>
VKKZSJQQRIGUIE-UHFFFAOYSA-N

> <FORMULA>
C10H10N2

$$$$
