WRV
  -OEChem-02242320043D

 31 31  0     1  0  0  0  0  0999 V2000
   -2.5280    0.2990   -0.2660 N   0  0  0  0  0  0  0  0  0  0  0  0
   -1.2550   -0.1340   -0.1790 C   0  0  0  0  0  0  0  0  0  0  0  0
    1.0840    0.2640   -0.3640 C   0  0  0  0  0  0  0  0  0  0  0  0
    2.0610    1.1910   -0.0300 C   0  0  0  0  0  0  0  0  0  0  0  0
    3.3710    0.7810    0.1420 C   0  0  0  0  0  0  0  0  0  0  0  0
    3.7070   -0.5530   -0.0190 C   0  0  0  0  0  0  0  0  0  0  0  0
    2.7340   -1.4780   -0.3510 C   0  0  0  0  0  0  0  0  0  0  0  0
   -3.8460   -0.4780    1.6420 C   0  0  0  0  0  0  0  0  0  0  0  0
   -3.6300   -0.5810    0.1310 C   0  0  1  0  0  0  0  0  0  0  0  0
   -4.9070   -0.1590   -0.5970 C   0  0  0  0  0  0  0  0  0  0  0  0
   -5.2930    1.1470   -0.1650 O   0  0  0  0  0  0  0  0  0  0  0  0
   -0.2410    0.6760   -0.5440 N   0  0  0  0  0  0  0  0  0  0  0  0
    4.3240    1.6820    0.4670 F   0  0  0  0  0  0  0  0  0  0  0  0
    5.1340   -0.9980    0.1690 C   0  0  0  0  0  0  0  0  0  0  0  0
    1.4240   -1.0740   -0.5240 C   0  0  0  0  0  0  0  0  0  0  0  0
   -1.0200   -1.2550    0.2290 O   0  0  0  0  0  0  0  0  0  0  0  0
   -2.7150    1.1950   -0.5880 H   0  0  0  0  0  0  0  0  0  0  0  0
    1.8000    2.2310    0.0950 H   0  0  0  0  0  0  0  0  0  0  0  0
    2.9980   -2.5170   -0.4770 H   0  0  0  0  0  0  0  0  0  0  0  0
   -2.9360   -0.7780    2.1610 H   0  0  0  0  0  0  0  0  0  0  0  0
   -4.0910    0.5520    1.9040 H   0  0  0  0  0  0  0  0  0  0  0  0
   -4.6660   -1.1330    1.9370 H   0  0  0  0  0  0  0  0  0  0  0  0
   -3.3850   -1.6100   -0.1310 H   0  0  0  0  0  0  0  0  0  0  0  0
   -4.7260   -0.1480   -1.6720 H   0  0  0  0  0  0  0  0  0  0  0  0
   -5.7050   -0.8670   -0.3710 H   0  0  0  0  0  0  0  0  0  0  0  0
   -6.0970    1.4800   -0.5870 H   0  0  0  0  0  0  0  0  0  0  0  0
   -0.4300    1.5440   -0.9320 H   0  0  0  0  0  0  0  0  0  0  0  0
    5.2950   -1.2720    1.2120 H   0  0  0  0  0  0  0  0  0  0  0  0
    5.3330   -1.8600   -0.4680 H   0  0  0  0  0  0  0  0  0  0  0  0
    5.8070   -0.1840   -0.1010 H   0  0  0  0  0  0  0  0  0  0  0  0
    0.6660   -1.7960   -0.7870 H   0  0  0  0  0  0  0  0  0  0  0  0
  6 14  1  0  0  0  0
  5 13  1  0  0  0  0
  5  6  2  0  0  0  0
  6  7  1  0  0  0  0
  4  5  1  0  0  0  0
  3  4  2  0  0  0  0
  7 15  2  0  0  0  0
  3 15  1  0  0  0  0
  3 12  1  0  0  0  0
  2 16  2  0  0  0  0
  2 12  1  0  0  0  0
  1  2  1  0  0  0  0
  1  9  1  0  0  0  0
  8  9  1  0  0  0  0
  9 10  1  0  0  0  0
 10 11  1  0  0  0  0
  1 17  1  0  0  0  0
  4 18  1  0  0  0  0
  7 19  1  0  0  0  0
  8 20  1  0  0  0  0
  8 21  1  0  0  0  0
  8 22  1  0  0  0  0
  9 23  1  0  0  0  0
 10 24  1  0  0  0  0
 10 25  1  0  0  0  0
 11 26  1  0  0  0  0
 12 27  1  0  0  0  0
 14 28  1  0  0  0  0
 14 29  1  0  0  0  0
 14 30  1  0  0  0  0
 15 31  1  0  0  0  0
M  END
> <OPENEYE_ISO_SMILES>
Cc1ccc(cc1F)NC(=O)N[C@@H](C)CO

> <OPENEYE_INCHI>
InChI=1S/C11H15FN2O2/c1-7-3-4-9(5-10(7)12)14-11(16)13-8(2)6-15/h3-5,8,15H,6H2,1-2H3,(H2,13,14,16)/t8-/m0/s1

> <OPENEYE_INCHIKEY>
ONARABRJRRBWJE-QMMMGPOBSA-N

> <FORMULA>
C11H15FN2O2

$$$$
