QQ9
  -OEChem-02242320033D

 35 37  0     1  0  0  0  0  0999 V2000
   -3.2140    1.9810    0.8000 C   0  0  0  0  0  0  0  0  0  0  0  0
   -1.9350    1.5160    1.0530 C   0  0  0  0  0  0  0  0  0  0  0  0
   -3.8380    0.0200   -0.2490 C   0  0  0  0  0  0  0  0  0  0  0  0
   -3.8260   -2.0560   -1.1070 C   0  0  0  0  0  0  0  0  0  0  0  0
   -2.5930   -1.8760   -0.6020 C   0  0  0  0  0  0  0  0  0  0  0  0
   -2.5610   -0.5350   -0.0280 C   0  0  0  0  0  0  0  0  0  0  0  0
    2.2070   -0.0740    0.8350 C   0  0  0  0  0  0  0  0  0  0  0  0
    4.4630   -0.5240   -0.0940 C   0  0  0  0  0  0  0  0  0  0  0  0
    3.0380   -0.1840   -0.4470 C   0  0  2  0  0  0  0  0  0  0  0  0
    3.0000    1.1530   -1.1910 C   0  0  0  0  0  0  0  0  0  0  0  0
    1.5570    1.4820   -1.5780 C   0  0  0  0  0  0  0  0  0  0  0  0
    0.7090    1.6120   -0.3090 C   0  0  0  0  0  0  0  0  0  0  0  0
   -0.2300   -0.3090    0.8840 C   0  0  0  0  0  0  0  0  0  0  0  0
   -1.5830    0.2300    0.6360 C   0  0  0  0  0  0  0  0  0  0  0  0
    0.8550    0.3840    0.4850 N   0  0  0  0  0  0  0  0  0  0  0  0
   -4.5800   -0.9330   -0.9070 N   0  0  0  0  0  0  0  0  0  0  0  0
   -4.1090    1.2440    0.1770 N   0  0  0  0  0  0  0  0  0  0  0  0
    5.3580    0.2250   -0.4080 O   0  0  0  0  0  0  0  0  0  0  0  0
   -0.0950   -1.3770    1.4480 O   0  0  0  0  0  0  0  0  0  0  0  0
    4.7390   -1.6580    0.5700 O   0  0  0  0  0  0  0  0  0  0  0  0
   -3.4860    2.9740    1.1270 H   0  0  0  0  0  0  0  0  0  0  0  0
   -1.2180    2.1400    1.5660 H   0  0  0  0  0  0  0  0  0  0  0  0
   -4.1680   -2.9520   -1.6030 H   0  0  0  0  0  0  0  0  0  0  0  0
   -1.7810   -2.5880   -0.6170 H   0  0  0  0  0  0  0  0  0  0  0  0
    2.1480   -1.0490    1.3180 H   0  0  0  0  0  0  0  0  0  0  0  0
    2.6710    0.6430    1.5140 H   0  0  0  0  0  0  0  0  0  0  0  0
    2.6240   -0.9670   -1.0820 H   0  0  0  0  0  0  0  0  0  0  0  0
    3.3920    1.9390   -0.5450 H   0  0  0  0  0  0  0  0  0  0  0  0
    3.6110    1.0840   -2.0910 H   0  0  0  0  0  0  0  0  0  0  0  0
    1.5340    2.4230   -2.1290 H   0  0  0  0  0  0  0  0  0  0  0  0
    1.1570    0.6840   -2.2040 H   0  0  0  0  0  0  0  0  0  0  0  0
    1.0520    2.4670    0.2740 H   0  0  0  0  0  0  0  0  0  0  0  0
   -0.3370    1.7510   -0.5810 H   0  0  0  0  0  0  0  0  0  0  0  0
   -5.5020   -0.8250   -1.1880 H   0  0  0  0  0  0  0  0  0  0  0  0
    5.6680   -1.8320    0.7730 H   0  0  0  0  0  0  0  0  0  0  0  0
  8 18  2  0  0  0  0
  9 10  1  0  0  0  0
 10 11  1  0  0  0  0
 11 12  1  0  0  0  0
 12 15  1  0  0  0  0
  6 14  2  0  0  0  0
  5  6  1  0  0  0  0
  4  5  2  0  0  0  0
  4 16  1  0  0  0  0
  3 16  1  0  0  0  0
  3 17  2  0  0  0  0
  1 17  1  0  0  0  0
  1  2  2  0  0  0  0
 13 14  1  0  0  0  0
 13 19  2  0  0  0  0
 13 15  1  0  0  0  0
  7 15  1  0  0  0  0
  8  9  1  0  0  0  0
  8 20  1  0  0  0  0
  7  9  1  0  0  0  0
  2 14  1  0  0  0  0
  3  6  1  0  0  0  0
  1 21  1  0  0  0  0
  2 22  1  0  0  0  0
  4 23  1  0  0  0  0
  5 24  1  0  0  0  0
  7 25  1  0  0  0  0
  7 26  1  0  0  0  0
  9 27  1  0  0  0  0
 10 28  1  0  0  0  0
 10 29  1  0  0  0  0
 11 30  1  0  0  0  0
 11 31  1  0  0  0  0
 12 32  1  0  0  0  0
 12 33  1  0  0  0  0
 16 34  1  0  0  0  0
 20 35  1  0  0  0  0
M  END
> <OPENEYE_ISO_SMILES>
c1c[nH]c2c1c(ccn2)C(=O)N3CCC[C@H](C3)C(=O)O

> <OPENEYE_INCHI>
InChI=1S/C14H15N3O3/c18-13(17-7-1-2-9(8-17)14(19)20)11-4-6-16-12-10(11)3-5-15-12/h3-6,9H,1-2,7-8H2,(H,15,16)(H,19,20)/t9-/m1/s1

> <OPENEYE_INCHIKEY>
ZNXPXZYKUWUFEH-SECBINFHSA-N

> <FORMULA>
C14H15N3O3

$$$$
