PK4
  -OEChem-02242320033D

 23 23  0     0  0  0  0  0  0999 V2000
   -1.6690    1.9610    1.1040 C   0  0  0  0  0  0  0  0  0  0  0  0
    3.2630    1.5120   -0.1470 C   0  0  0  0  0  0  0  0  0  0  0  0
    0.9750    0.4920   -0.1660 C   0  0  0  0  0  0  0  0  0  0  0  0
    2.3420    0.3260   -0.0170 C   0  0  0  0  0  0  0  0  0  0  0  0
    0.1300   -0.5980   -0.0470 C   0  0  0  0  0  0  0  0  0  0  0  0
    0.6500   -1.8500    0.2190 C   0  0  0  0  0  0  0  0  0  0  0  0
    2.0150   -2.0140    0.3680 C   0  0  0  0  0  0  0  0  0  0  0  0
    2.8600   -0.9270    0.2490 C   0  0  0  0  0  0  0  0  0  0  0  0
    0.4670    1.7180   -0.4210 F   0  0  0  0  0  0  0  0  0  0  0  0
   -2.1260    0.5720    1.0120 N   0  0  0  0  0  0  0  0  0  0  0  0
   -1.7970    0.3650   -1.4260 O   0  0  0  0  0  0  0  0  0  0  0  0
   -2.1930   -1.6670   -0.0250 O   0  0  0  0  0  0  0  0  0  0  0  0
   -1.6100   -0.3880   -0.2350 S   0  0  0  0  0  0  0  0  0  0  0  0
   -0.5830    1.9810    1.1880 H   0  0  0  0  0  0  0  0  0  0  0  0
   -1.9750    2.5040    0.2100 H   0  0  0  0  0  0  0  0  0  0  0  0
   -2.1100    2.4300    1.9830 H   0  0  0  0  0  0  0  0  0  0  0  0
    3.3980    1.9760    0.8300 H   0  0  0  0  0  0  0  0  0  0  0  0
    4.2300    1.1810   -0.5280 H   0  0  0  0  0  0  0  0  0  0  0  0
    2.8300    2.2350   -0.8370 H   0  0  0  0  0  0  0  0  0  0  0  0
   -0.0090   -2.7000    0.3120 H   0  0  0  0  0  0  0  0  0  0  0  0
    2.4210   -2.9930    0.5760 H   0  0  0  0  0  0  0  0  0  0  0  0
    3.9260   -1.0560    0.3650 H   0  0  0  0  0  0  0  0  0  0  0  0
   -2.7300    0.2140    1.6810 H   0  0  0  0  0  0  0  0  0  0  0  0
  1 10  1  0  0  0  0
 10 13  1  0  0  0  0
  3  9  1  0  0  0  0
  2  4  1  0  0  0  0
 11 13  2  0  0  0  0
  3  4  2  0  0  0  0
  3  5  1  0  0  0  0
  4  8  1  0  0  0  0
  5 13  1  0  0  0  0
 12 13  2  0  0  0  0
  5  6  2  0  0  0  0
  7  8  2  0  0  0  0
  6  7  1  0  0  0  0
  1 14  1  0  0  0  0
  1 15  1  0  0  0  0
  1 16  1  0  0  0  0
  2 17  1  0  0  0  0
  2 18  1  0  0  0  0
  2 19  1  0  0  0  0
  6 20  1  0  0  0  0
  7 21  1  0  0  0  0
  8 22  1  0  0  0  0
 10 23  1  0  0  0  0
M  END
> <OPENEYE_ISO_SMILES>
Cc1cccc(c1F)S(=O)(=O)NC

> <OPENEYE_INCHI>
InChI=1S/C8H10FNO2S/c1-6-4-3-5-7(8(6)9)13(11,12)10-2/h3-5,10H,1-2H3

> <OPENEYE_INCHIKEY>
PXJRMCHXJXWNJG-UHFFFAOYSA-N

> <FORMULA>
C8H10FNO2S

$$$$
