@<TRIPOS>MOLECULE
/home/pku/3cl/gett_pdb/5RSC/5RSC_mol2/ligand/5RSC_W5S.pdb
 32 34 0 0 0
SMALL
GASTEIGER

@<TRIPOS>ATOM
      1  N12      -45.9850  -29.2470    2.7560 N.ar  201  W5S201     -0.3237
      2  C13      -44.9200  -29.3950    1.7980 C.3   201  W5S201      0.0825
      3  C15      -43.4650  -31.5840    1.5150 C.ar  201  W5S201     -0.0189
      4  C17      -45.2250  -32.9560    1.2250 C.ar  201  W5S201      0.0922
      5  C01      -47.9080  -29.1360    1.1630 C.3   201  W5S201     -0.0239
      6  C02      -47.2760  -29.1290    2.5370 C.ar  201  W5S201      0.0211
      7  C03      -47.9320  -29.0460    3.7490 C.ar  201  W5S201     -0.0211
      8  C04      -49.4280  -28.8800    3.9180 C.3   201  W5S201     -0.0376
      9  C05      -46.9160  -29.0880    4.7420 C.ar  201  W5S201      0.0426
     10  C06      -46.7850  -29.0410    6.1590 C.3   201  W5S201      0.1824
     11  C09      -44.5140  -29.2250    5.9450 C.2   201  W5S201      0.1048
     12  C11      -45.7550  -29.2380    4.0540 C.ar  201  W5S201      0.1320
     13  C14      -44.6530  -30.8740    1.5880 C.ar  201  W5S201      0.1244
     14  C16      -43.8350  -32.9040    1.2900 C.ar  201  W5S201     -0.0236
     15  N07      -47.9550  -28.8940    6.9640 N.3   201  W5S201     -0.2998
     16  N08      -45.5860  -29.1220    6.7060 N.2   201  W5S201     -0.2436
     17  N10      -44.5790  -29.3150    4.6560 N.pl3 201  W5S201     -0.1857
     18  O18      -45.6700  -31.6880    1.4000 O.2   201  W5S201     -0.4660
     19 H131      -45.1680  -28.9780    0.9640 H     201  W5S201      0.0573
     20 H132      -44.1180  -28.9700    2.1400 H     201  W5S201      0.0573
     21 H151      -42.6020  -31.2490    1.6080 H     201  W5S201      0.0652
     22 H171      -45.7460  -33.7120    1.0800 H     201  W5S201      0.1029
     23 H012      -47.2810  -28.5740    0.6830 H     201  W5S201      0.0292
     24 H011      -48.6890  -28.5950    1.0730 H     201  W5S201      0.0292
     25 H013      -47.8060  -29.9510    0.6590 H     201  W5S201      0.0292
     26 H041      -49.8200  -28.5240    3.1080 H     201  W5S201      0.0278
     27 H042      -49.5900  -28.2550    4.6410 H     201  W5S201      0.0278
     28 H043      -49.8310  -29.7300    4.1480 H     201  W5S201      0.0278
     29 H091      -43.6840  -29.3130    6.3560 H     201  W5S201      0.1015
     30 H161      -43.2580  -33.6270    1.2030 H     201  W5S201      0.0649
     31 H072      -48.7310  -29.0460    6.6260 H     201  W5S201      0.1208
     32 H071      -47.8840  -28.6530    7.7870 H     201  W5S201      0.1208
@<TRIPOS>BOND
     1    25     5    1
     2    23     5    1
     3    19     2    1
     4    24     5    1
     5    22     4    1
     6     5     6    1
     7    30    14    1
     8     4    14   ar
     9     4    18   ar
    10    14     3   ar
    11    18    13   ar
    12     3    13   ar
    13     3    21    1
    14    13     2    1
    15     2    20    1
    16     2     1    1
    17     6     1   ar
    18     6     7   ar
    19     1    12   ar
    20    26     8    1
    21     7     8    1
    22     7     9   ar
    23     8    28    1
    24     8    27    1
    25    12    17    1
    26    12     9   ar
    27    17    11    1
    28     9    10    1
    29    11    29    1
    30    11    16    2
    31    10    16    1
    32    10    15    1
    33    31    15    1
    34    15    32    1
