@<TRIPOS>MOLECULE
/home/pku/3cl/gett_pdb/5SSH/5SSH_mol2/ligand/5SSH_RQ8.pdb
 38 39 0 0 0
SMALL
GASTEIGER

@<TRIPOS>ATOM
      1  C18      -47.7960  -28.8960    2.5830 C.ar  201  RQ8201      0.0415
      2  C16      -47.0230  -29.1400    3.6910 C.ar  201  RQ8201      0.0362
      3  C15      -45.6880  -29.4840    3.5900 C.ar  201  RQ8201     -0.0416
      4  C14      -45.1930  -29.5750    2.3060 C.ar  201  RQ8201     -0.0261
      5  C13      -43.7370  -29.9340    2.0550 C.3   201  RQ8201     -0.0024
      6  C10      -43.6580  -31.9390    3.5130 C.2   201  RQ8201      0.0623
      7  C20      -46.0200  -29.3120    1.2330 C.ar  201  RQ8201      0.0309
      8  C01      -44.8830  -34.9310   -5.4140 C.3   201  RQ8201      0.0034
      9  C02      -44.0110  -35.3310   -4.2350 C.3   201  RQ8201      0.2726
     10  C04      -44.6350  -34.8490   -2.9260 C.ar  201  RQ8201      0.0390
     11  C05      -43.9920  -33.8590   -2.2060 C.ar  201  RQ8201     -0.0379
     12  C06      -44.5810  -33.4230   -1.0330 C.ar  201  RQ8201      0.0552
     13  C07      -43.8450  -32.3680   -0.2220 C.2   201  RQ8201      0.2460
     14  C09      -43.4060  -31.4200    2.1010 C.3   201  RQ8201      0.0669
     15  C22      -45.7460  -34.0150   -0.5780 C.ar  201  RQ8201      0.0397
     16  C24      -45.8180  -35.3880   -2.4430 C.ar  201  RQ8201      0.0364
     17  F03      -43.8700  -36.6890   -4.2000 F     201  RQ8201     -0.2006
     18  F25      -42.7770  -34.7680   -4.3900 F     201  RQ8201     -0.2006
     19  N08      -44.1240  -32.3030    1.1960 N.am  201  RQ8201     -0.3030
     20  N19      -47.2870  -28.9830    1.3780 N.ar  201  RQ8201     -0.2619
     21  N23      -46.3250  -34.9600   -1.2990 N.ar  201  RQ8201     -0.2621
     22  O11      -43.0780  -31.4050    4.4910 O.co2 201  RQ8201     -0.5479
     23  O12      -44.4400  -32.9100    3.6880 O.co2 201  RQ8201     -0.5479
     24  O21      -43.0110  -31.6940   -0.7170 O.2   201  RQ8201     -0.2701
     25 BR17      -47.8990  -28.9570    5.3840 Br    201  RQ8201     -0.0487
     26 H181      -48.8350  -28.6360    2.7410 H     201  RQ8201      0.0841
     27 H151      -45.0700  -29.6990    4.4610 H     201  RQ8201      0.0632
     28 H131      -43.4450  -29.5360    1.0950 H     201  RQ8201      0.0335
     29 H132      -43.1360  -29.4600    2.8250 H     201  RQ8201      0.0335
     30 H201      -45.6000  -29.3710    0.2510 H     201  RQ8201      0.0832
     31 H011      -44.3280  -35.0820   -6.3450 H     201  RQ8201      0.0290
     32 H013      -45.1570  -33.8780   -5.3200 H     201  RQ8201      0.0290
     33 H012      -45.7860  -35.5290   -5.4360 H     201  RQ8201      0.0290
     34 H051      -43.0750  -33.4100   -2.5640 H     201  RQ8201      0.0631
     35 H091      -42.3550  -31.5290    1.8840 H     201  RQ8201      0.0563
     36 H221      -46.1900  -33.6870    0.3580 H     201  RQ8201      0.0837
     37 H241      -46.3220  -36.1700   -2.9970 H     201  RQ8201      0.0834
     38 H081      -44.7950  -32.9380    1.5610 H     201  RQ8201      0.1497
@<TRIPOS>UNITY_ATOM_ATTR
22 1
charge -1
@<TRIPOS>BOND
     1    31     8    1
     2    33     8    1
     3     8    32    1
     4     8     9    1
     5    18     9    1
     6     9    17    1
     7     9    10    1
     8    37    16    1
     9    10    16   ar
    10    10    11   ar
    11    34    11    1
    12    16    21   ar
    13    11    12   ar
    14    21    15   ar
    15    12    15   ar
    16    12    13    1
    17    24    13    2
    18    15    36    1
    19    13    19   am
    20    30     7    1
    21    28     5    1
    22    19    38    1
    23    19    14    1
    24     7    20   ar
    25     7     4   ar
    26    20     1   ar
    27    35    14    1
    28     5    14    1
    29     5     4    1
    30     5    29    1
    31    14     6    1
    32     4     3   ar
    33     1    26    1
    34     1     2   ar
    35     6    23   ar
    36     6    22   ar
    37     3     2   ar
    38     3    27    1
    39     2    25    1
