52F
  -OEChem-02242320013D

 26 27  0     0  0  0  0  0  0999 V2000
   -3.5260    2.0790    0.0000 C   0  0  0  0  0  0  0  0  0  0  0  0
   -2.3900   -0.4530   -0.0000 C   0  0  0  0  0  0  0  0  0  0  0  0
   -0.4720   -1.8160    0.0000 C   0  0  0  0  0  0  0  0  0  0  0  0
    4.7020    1.7230   -0.0000 O   0  0  0  0  0  0  0  0  0  0  0  0
    3.9540    0.6080    0.0000 C   0  0  0  0  0  0  0  0  0  0  0  0
    4.4870   -0.4760    0.0000 O   0  0  0  0  0  0  0  0  0  0  0  0
    2.4510    0.7090   -0.0000 C   0  0  0  0  0  0  0  0  0  0  0  0
    1.8460   -0.6960    0.0000 C   0  0  0  0  0  0  0  0  0  0  0  0
    0.3420   -0.5960    0.0000 C   0  0  0  0  0  0  0  0  0  0  0  0
   -0.2300    0.5740   -0.0000 N   0  0  0  0  0  0  0  0  0  0  0  0
   -1.5710    0.6920   -0.0000 C   0  0  0  0  0  0  0  0  0  0  0  0
   -2.1670    1.9630    0.0000 C   0  0  0  0  0  0  0  0  0  0  0  0
   -4.3330    0.9490   -0.0000 C   0  0  0  0  0  0  0  0  0  0  0  0
   -3.7740   -0.3100   -0.0000 C   0  0  0  0  0  0  0  0  0  0  0  0
   -1.8190   -1.7100    0.0000 N   0  0  0  0  0  0  0  0  0  0  0  0
    0.0600   -2.9110   -0.0000 O   0  0  0  0  0  0  0  0  0  0  0  0
   -3.9790    3.0590    0.0050 H   0  0  0  0  0  0  0  0  0  0  0  0
    5.6620    1.6090   -0.0000 H   0  0  0  0  0  0  0  0  0  0  0  0
    2.1230    1.2460    0.8900 H   0  0  0  0  0  0  0  0  0  0  0  0
    2.1230    1.2460   -0.8900 H   0  0  0  0  0  0  0  0  0  0  0  0
    2.1740   -1.2330   -0.8900 H   0  0  0  0  0  0  0  0  0  0  0  0
    2.1740   -1.2330    0.8900 H   0  0  0  0  0  0  0  0  0  0  0  0
   -1.5490    2.8490    0.0000 H   0  0  0  0  0  0  0  0  0  0  0  0
   -5.4080    1.0590   -0.0000 H   0  0  0  0  0  0  0  0  0  0  0  0
   -4.4090   -1.1840   -0.0000 H   0  0  0  0  0  0  0  0  0  0  0  0
   -2.3760   -2.5040    0.0010 H   0  0  0  0  0  0  0  0  0  0  0  0
  1 13  2  0  0  0  0
  1 12  1  0  0  0  0
 13 14  1  0  0  0  0
 11 12  2  0  0  0  0
  2 14  2  0  0  0  0
  2 11  1  0  0  0  0
 10 11  1  0  0  0  0
  2 15  1  0  0  0  0
  9 10  2  0  0  0  0
  3 15  1  0  0  0  0
  3  9  1  0  0  0  0
  8  9  1  0  0  0  0
  3 16  2  0  0  0  0
  7  8  1  0  0  0  0
  5  7  1  0  0  0  0
  5  6  2  0  0  0  0
  4  5  1  0  0  0  0
  1 17  1  0  0  0  0
  4 18  1  0  0  0  0
  7 19  1  0  0  0  0
  7 20  1  0  0  0  0
  8 21  1  0  0  0  0
  8 22  1  0  0  0  0
 12 23  1  0  0  0  0
 13 24  1  0  0  0  0
 14 25  1  0  0  0  0
 15 26  1  0  0  0  0
M  END
> <OPENEYE_ISO_SMILES>
c1ccc2c(c1)[nH]c(=O)c(n2)CCC(=O)O

> <OPENEYE_INCHI>
InChI=1S/C11H10N2O3/c14-10(15)6-5-9-11(16)13-8-4-2-1-3-7(8)12-9/h1-4H,5-6H2,(H,13,16)(H,14,15)

> <OPENEYE_INCHIKEY>
HROJWOXFEZYMGL-UHFFFAOYSA-N

> <FORMULA>
C11H10N2O3

$$$$
