@<TRIPOS>MOLECULE
/home/pku/3cl/gett_pdb/7N7R/7N7R_mol2/ligand/7N7R_S6V.pdb
 18 19 0 0 0
SMALL
GASTEIGER

@<TRIPOS>ATOM
      1  N1        28.2120  -47.3260   -2.7030 N.am  401  S6V401     -0.1610
      2  N3        27.3070  -49.3900   -7.9570 N.am  401  S6V401     -0.2777
      3  C4        28.7440  -46.2020   -2.0100 C.ar  401  S6V401      0.0750
      4  C5        27.8840  -45.4640   -1.2490 C.ar  401  S6V401      0.0166
      5  C6        28.3220  -44.3810   -0.5430 C.ar  401  S6V401      0.0013
      6  C7        28.6440  -47.7940   -3.9680 C.2   401  S6V401      0.3435
      7  C8        28.2360  -49.5110   -5.7310 C.3   401  S6V401      0.1383
      8  C10       26.1010  -50.3210   -8.3800 C.3   401  S6V401      0.0940
      9  C13       28.2290  -49.3500   -8.9430 C.2   401  S6V401      0.2257
     10  C1        29.6510  -44.0580   -0.6080 C.ar  401  S6V401      0.0001
     11  C11       26.5320  -51.1000   -9.4120 C.3   401  S6V401      0.0311
     12  C12       27.6450  -50.2810  -10.0790 C.3   401  S6V401      0.0870
     13  C2        30.5120  -44.7860   -1.3930 C.ar  401  S6V401      0.0013
     14  C3        30.0670  -45.8770   -2.0970 C.ar  401  S6V401      0.0166
     15  C9        27.4030  -48.6950   -6.7050 C.3   401  S6V401      0.1168
     16  N2        27.9470  -48.9380   -4.4560 N.am  401  S6V401     -0.1851
     17  O1        29.4970  -47.2690   -4.5480 O.2   401  S6V401     -0.2488
     18  O2        29.2330  -48.7580   -8.9570 O.2   401  S6V401     -0.2749
@<TRIPOS>BOND
     1    12    11    1
     2    12     9    1
     3    11     8    1
     4    18     9    2
     5     9     2   am
     6     8     2    1
     7     2    15    1
     8    15     7    1
     9     7    16    1
    10    17     6    2
    11    16     6   am
    12     6     1   am
    13     1     3    1
    14    14     3   ar
    15    14    13   ar
    16     3     4   ar
    17    13    10   ar
    18     4     5   ar
    19    10     5   ar
