@<TRIPOS>MOLECULE
/home/pku/3cl/gett_pdb/5RU1/5RU1_mol2/ligand/5RU1_DFA.pdb
 27 28 0 0 0
SMALL
GASTEIGER

@<TRIPOS>ATOM
      1  C8       -44.2430  -29.9940    3.4230 C.2   201  DFA201      0.0534
      2  O11      -43.4210  -29.0680    3.5450 O.co2 201  DFA201     -0.5489
      3  C5       -47.2710  -33.0390    1.7400 C.ar  201  DFA201     -0.0615
      4  C4       -46.9370  -31.8850    2.4350 C.ar  201  DFA201     -0.0576
      5  C3       -45.9820  -31.0050    1.9540 C.ar  201  DFA201     -0.0345
      6  C2       -45.3270  -31.3150    0.7740 C.ar  201  DFA201     -0.0576
      7  C1       -45.6470  -32.4730    0.0750 C.ar  201  DFA201     -0.0615
      8  C6       -46.6110  -33.3420    0.5650 C.ar  201  DFA201     -0.0617
      9  C10      -46.6720  -29.2640    3.7100 C.ar  201  DFA201     -0.0345
     10  C16      -46.4860  -29.3670    5.0730 C.ar  201  DFA201     -0.0576
     11  C15      -47.4860  -28.9400    5.9250 C.ar  201  DFA201     -0.0615
     12  C14      -48.6600  -28.3920    5.4300 C.ar  201  DFA201     -0.0617
     13  C13      -48.8420  -28.2740    4.0730 C.ar  201  DFA201     -0.0615
     14  C12      -47.8500  -28.7210    3.2230 C.ar  201  DFA201     -0.0576
     15  C11      -45.5890  -29.7340    2.7240 C.3   201  DFA201      0.0486
     16  O1'      -43.9480  -31.1310    3.9030 O.co2 201  DFA201     -0.5489
     17  H5       -47.9200  -33.6150    2.0740 H     201  DFA201      0.0618
     18  H4       -47.3790  -31.6910    3.2300 H     201  DFA201      0.0621
     19  H2       -44.6720  -30.7420    0.4450 H     201  DFA201      0.0621
     20  H1       -45.2080  -32.6690   -0.7210 H     201  DFA201      0.0618
     21  H6       -46.8320  -34.1100    0.0900 H     201  DFA201      0.0618
     22  H16      -45.7050  -29.7360    5.4180 H     201  DFA201      0.0621
     23  H15      -47.3650  -29.0090    6.8440 H     201  DFA201      0.0618
     24  H14      -49.3210  -28.1010    6.0160 H     201  DFA201      0.0618
     25  H13      -49.6290  -27.9160    3.7320 H     201  DFA201      0.0618
     26  H12      -47.9690  -28.6430    2.3040 H     201  DFA201      0.0621
     27  H11      -45.4530  -29.0260    2.0750 H     201  DFA201      0.0458
@<TRIPOS>UNITY_ATOM_ATTR
16 1
charge -1
@<TRIPOS>BOND
     1    20     7    1
     2     7     8   ar
     3     7     6   ar
     4    21     8    1
     5    19     6    1
     6     8     3   ar
     7     6     5   ar
     8     3    17    1
     9     3     4   ar
    10     5     4   ar
    11     5    15    1
    12    27    15    1
    13    26    14    1
    14     4    18    1
    15    15     1    1
    16    15     9    1
    17    14     9   ar
    18    14    13   ar
    19     1     2   ar
    20     1    16   ar
    21     9    10   ar
    22    25    13    1
    23    13    12   ar
    24    10    22    1
    25    10    11   ar
    26    12    11   ar
    27    12    24    1
    28    11    23    1
