T71
  -OEChem-02242320043D

 40 41  0     0  0  0  0  0  0999 V2000
   -3.3550   -0.2870   -0.0730 N   0  0  0  0  0  0  0  0  0  0  0  0
    2.2200    1.3230   -0.4370 C   0  0  0  0  0  0  0  0  0  0  0  0
    1.1990    2.4110   -0.2250 C   0  0  0  0  0  0  0  0  0  0  0  0
    2.0780    0.1070    0.2060 C   0  0  0  0  0  0  0  0  0  0  0  0
    3.0110   -0.8930    0.0070 C   0  0  0  0  0  0  0  0  0  0  0  0
   -1.1360   -1.2480   -0.3960 C   0  0  0  0  0  0  0  0  0  0  0  0
   -2.8830    0.8840    0.6800 C   0  0  0  0  0  0  0  0  0  0  0  0
   -5.2460    1.0760   -0.9010 C   0  0  0  0  0  0  0  0  0  0  0  0
   -0.6640   -0.0780    0.3570 N   0  0  0  0  0  0  0  0  0  0  0  0
    5.1030   -1.7690   -1.0530 C   0  0  0  0  0  0  0  0  0  0  0  0
    0.8080   -1.5140    1.7220 O   0  0  0  0  0  0  0  0  0  0  0  0
    4.0850   -0.6780   -0.8360 C   0  0  0  0  0  0  0  0  0  0  0  0
   -1.4310    1.1730    0.2770 C   0  0  0  0  0  0  0  0  0  0  0  0
   -4.4690   -0.2130   -0.8280 C   0  0  0  0  0  0  0  0  0  0  0  0
    4.2270    0.5370   -1.4800 C   0  0  0  0  0  0  0  0  0  0  0  0
    3.2930    1.5370   -1.2810 C   0  0  0  0  0  0  0  0  0  0  0  0
   -2.5870   -1.5370    0.0070 C   0  0  0  0  0  0  0  0  0  0  0  0
    0.6670    0.9420    2.1690 O   0  0  0  0  0  0  0  0  0  0  0  0
   -4.8460   -1.1840   -1.4500 O   0  0  0  0  0  0  0  0  0  0  0  0
    0.7080   -0.1670    1.2800 S   0  0  0  0  0  0  0  0  0  0  0  0
    0.3530    2.2510   -0.8930 H   0  0  0  0  0  0  0  0  0  0  0  0
    0.8550    2.3900    0.8090 H   0  0  0  0  0  0  0  0  0  0  0  0
    1.6520    3.3800   -0.4370 H   0  0  0  0  0  0  0  0  0  0  0  0
    2.9000   -1.8420    0.5100 H   0  0  0  0  0  0  0  0  0  0  0  0
   -1.0870   -1.0390   -1.4640 H   0  0  0  0  0  0  0  0  0  0  0  0
   -0.5100   -2.1100   -0.1630 H   0  0  0  0  0  0  0  0  0  0  0  0
   -3.5070    1.7460    0.4450 H   0  0  0  0  0  0  0  0  0  0  0  0
   -2.9310    0.6750    1.7490 H   0  0  0  0  0  0  0  0  0  0  0  0
   -4.8670    1.6830   -1.7240 H   0  0  0  0  0  0  0  0  0  0  0  0
   -6.3000    0.8560   -1.0670 H   0  0  0  0  0  0  0  0  0  0  0  0
   -5.1320    1.6230    0.0360 H   0  0  0  0  0  0  0  0  0  0  0  0
    4.7980   -2.3870   -1.8970 H   0  0  0  0  0  0  0  0  0  0  0  0
    6.0750   -1.3220   -1.2610 H   0  0  0  0  0  0  0  0  0  0  0  0
    5.1710   -2.3850   -0.1560 H   0  0  0  0  0  0  0  0  0  0  0  0
   -1.4040    1.5540   -0.7430 H   0  0  0  0  0  0  0  0  0  0  0  0
   -1.0030    1.9090    0.9570 H   0  0  0  0  0  0  0  0  0  0  0  0
    5.0660    0.7050   -2.1380 H   0  0  0  0  0  0  0  0  0  0  0  0
    3.4020    2.4850   -1.7860 H   0  0  0  0  0  0  0  0  0  0  0  0
   -2.6150   -1.9190    1.0280 H   0  0  0  0  0  0  0  0  0  0  0  0
   -3.0160   -2.2740   -0.6730 H   0  0  0  0  0  0  0  0  0  0  0  0
 10 12  1  0  0  0  0
 12 15  2  0  0  0  0
 15 16  1  0  0  0  0
  2 16  2  0  0  0  0
  2  3  1  0  0  0  0
  2  4  1  0  0  0  0
  4  5  2  0  0  0  0
  5 12  1  0  0  0  0
  4 20  1  0  0  0  0
 11 20  2  0  0  0  0
 18 20  2  0  0  0  0
  9 20  1  0  0  0  0
  6  9  1  0  0  0  0
  6 17  1  0  0  0  0
  1 17  1  0  0  0  0
  1  7  1  0  0  0  0
  7 13  1  0  0  0  0
  9 13  1  0  0  0  0
  1 14  1  0  0  0  0
 14 19  2  0  0  0  0
  8 14  1  0  0  0  0
  3 21  1  0  0  0  0
  3 22  1  0  0  0  0
  3 23  1  0  0  0  0
  5 24  1  0  0  0  0
  6 25  1  0  0  0  0
  6 26  1  0  0  0  0
  7 27  1  0  0  0  0
  7 28  1  0  0  0  0
  8 29  1  0  0  0  0
  8 30  1  0  0  0  0
  8 31  1  0  0  0  0
 10 32  1  0  0  0  0
 10 33  1  0  0  0  0
 10 34  1  0  0  0  0
 13 35  1  0  0  0  0
 13 36  1  0  0  0  0
 15 37  1  0  0  0  0
 16 38  1  0  0  0  0
 17 39  1  0  0  0  0
 17 40  1  0  0  0  0
M  END
> <OPENEYE_ISO_SMILES>
Cc1ccc(c(c1)S(=O)(=O)N2CCN(CC2)C(=O)C)C

> <OPENEYE_INCHI>
InChI=1S/C14H20N2O3S/c1-11-4-5-12(2)14(10-11)20(18,19)16-8-6-15(7-9-16)13(3)17/h4-5,10H,6-9H2,1-3H3

> <OPENEYE_INCHIKEY>
ISTPGRLEOGSGGV-UHFFFAOYSA-N

> <FORMULA>
C14H20N2O3S

$$$$
