@<TRIPOS>MOLECULE
/home/pku/3cl/gett_pdb/7C8T/7C8T_mol2/ligand/7C8T_NOL.pdb
 43 45 0 0 0
SMALL
GASTEIGER

@<TRIPOS>ATOM
      1  C1        19.8790   41.1950  -12.3210 C.ar  401  NOL401     -0.0007
      2  C2        19.2270   40.1360  -12.9480 C.ar  401  NOL401      0.0213
      3  C3        19.7260   39.6520  -14.1680 C.ar  401  NOL401     -0.0007
      4  C4        20.8730   40.2170  -14.7350 C.ar  401  NOL401     -0.0002
      5  C5        21.5350   41.2720  -14.0940 C.ar  401  NOL401     -0.0000
      6  C6        21.0310   41.7660  -12.8890 C.ar  401  NOL401     -0.0002
      7  C13       17.9540   39.5180  -12.3150 C.3   401  NOL401      0.2368
      8  O15       18.2370   38.7740  -11.1390 O.3   401  NOL401     -0.4285
      9  C17       18.7400   37.4580  -11.2510 C.2   401  NOL401      0.4219
     10  N19       19.2500   36.8030  -10.0730 N.am  401  NOL401     -0.1585
     11  C21       19.9000   35.5310  -10.2220 C.3   401  NOL401      0.2029
     12  C23       18.9850   34.5320   -9.5470 C.2   401  NOL401      0.2642
     13  N25       18.4490   33.4050  -10.2760 N.am  401  NOL401     -0.1963
     14  C27       17.6130   32.4200   -9.6760 C.3   401  NOL401      0.1728
     15  C29       18.3680   31.5620   -8.6550 C.2   401  NOL401      0.2612
     16  N31       17.7290   31.2270   -7.4130 N.am  401  NOL401     -0.2030
     17  C33       18.3160   30.4040   -6.4000 C.3   401  NOL401      0.1287
     18  C35       17.2630   29.4400   -5.9960 C.3   401  NOL401      0.2036
     19  O39       17.9580   28.2690   -5.6080 O.3   401  NOL401     -0.2185
     20  C41       18.7320   31.2340   -5.1790 C.3   401  NOL401      0.0335
     21  C43       19.8020   32.2350   -5.5120 C.3   401  NOL401      0.0818
     22  C45       21.0950   31.4990   -5.8970 C.3   401  NOL401      0.0326
     23  C47       22.1860   32.5470   -5.5620 C.3   401  NOL401      0.1156
     24  N49       21.6510   33.2660   -4.4370 N.am  401  NOL401     -0.2054
     25  C51       20.1560   33.0870   -4.3460 C.2   401  NOL401      0.2410
     26  O54       19.4420   33.5870   -3.5030 O.2   401  NOL401     -0.2734
     27  O56       19.4400   31.1420   -8.9180 O.2   401  NOL401     -0.2715
     28  C58       16.8950   31.5040  -10.6740 C.3   401  NOL401      0.0311
     29  C60       16.3280   32.2680  -11.9000 C.3   401  NOL401      0.0022
     30  C62       15.1980   33.1750  -11.3900 C.3   401  NOL401      0.0001
     31  C63       14.1670   33.6280  -12.4340 C.3   401  NOL401      0.0000
     32  C64       14.0660   32.7680  -13.6960 C.3   401  NOL401      0.0000
     33  C65       14.5230   31.3300  -13.4970 C.3   401  NOL401      0.0000
     34  C66       15.9550   31.2500  -12.9970 C.3   401  NOL401      0.0001
     35  O73       18.7120   34.7000   -8.4190 O.2   401  NOL401     -0.2714
     36  C75       21.2730   35.6210   -9.5430 C.3   401  NOL401      0.1439
     37  C77       21.8840   34.2230   -9.4530 C.3   401  NOL401      0.0344
     38  O79       22.0770   36.5500  -10.2960 O.3   401  NOL401     -0.3587
     39  C81       22.9210   37.5060   -9.7040 C.3   401  NOL401      0.0930
     40  C83       23.7940   38.0920  -10.8100 C.3   401  NOL401      0.0296
     41  C85       22.1200   38.6480   -9.0980 C.3   401  NOL401      0.0296
     42  C87       23.8150   36.8940   -8.6200 C.3   401  NOL401      0.0296
     43  O89       18.7750   36.8420  -12.2760 O.2   401  NOL401     -0.2245
@<TRIPOS>BOND
     1     4     3   ar
     2     4     5   ar
     3     3     2   ar
     4     5     6   ar
     5    32    33    1
     6    32    31    1
     7    33    34    1
     8    34    29    1
     9     2     1   ar
    10     2     7    1
    11     6     1   ar
    12    31    30    1
    13     7     8    1
    14    43     9    2
    15    29    30    1
    16    29    28    1
    17     9     8    1
    18     9    10   am
    19    40    39    1
    20    28    14    1
    21    38    39    1
    22    38    36    1
    23    13    14    1
    24    13    12   am
    25    11    10    1
    26    11    12    1
    27    11    36    1
    28    39    41    1
    29    39    42    1
    30    14    15    1
    31    12    35    2
    32    36    37    1
    33    27    15    2
    34    15    16   am
    35    16    17    1
    36    17    18    1
    37    17    20    1
    38    18    19    1
    39    22    23    1
    40    22    21    1
    41    23    24    1
    42    21    20    1
    43    21    25    1
    44    24    25   am
    45    25    26    2
