@<TRIPOS>MOLECULE
/home/pku/3cl/gett_pdb/7EO7/7EO7_mol2/ligand/7EO7_FNO.pdb
 21 22 0 0 0
SMALL
GASTEIGER

@<TRIPOS>ATOM
      1  C10      -27.8470  -27.0000   34.4350 C.ar  401  FNO401      0.1974
      2  C13      -29.5270  -26.3100   32.3390 C.ar  401  FNO401      0.1988
      3  C15      -27.2490  -29.1300   33.3410 C.ar  401  FNO401      0.1990
      4  C17      -30.2320  -25.0920   39.1070 C.3   401  FNO401      0.0001
      5  C20      -31.3370  -26.0280   38.6130 C.3   401  FNO401      0.0000
      6  C21      -30.8220  -23.8860   39.8470 C.3   401  FNO401      0.0000
      7  C06      -28.4260  -24.8540   35.6180 C.3   401  FNO401      0.1774
      8  C07      -28.5540  -25.7970   34.4440 C.ar  401  FNO401      0.0499
      9  C08      -29.3270  -25.4400   36.7180 C.3   401  FNO401      0.0376
     10  C09      -27.9730  -27.8940   33.3520 C.ar  401  FNO401      0.0838
     11  C11      -28.7890  -27.5470   32.3440 C.ar  401  FNO401      0.0840
     12  C12      -29.4030  -25.4410   33.4040 C.ar  401  FNO401      0.0435
     13  C14      -29.2870  -24.6100   38.0030 C.3   401  FNO401      0.0030
     14  C16      -28.9040  -28.4570   31.2860 C.ar  401  FNO401      0.1990
     15  C18      -27.3470  -30.0340   32.2870 C.ar  401  FNO401      0.0454
     16  C19      -28.1990  -29.6780   31.2470 C.ar  401  FNO401      0.0454
     17  O01      -27.0770  -24.7990   36.0030 O.3   401  FNO401     -0.2182
     18  O02      -26.9840  -27.3770   35.4710 O.3   401  FNO401     -0.2867
     19  O03      -26.4190  -29.4140   34.4260 O.3   401  FNO401     -0.2865
     20  O04      -30.3900  -25.9460   31.2960 O.3   401  FNO401     -0.2865
     21  O05      -29.7830  -28.0220   30.2980 O.3   401  FNO401     -0.2865
@<TRIPOS>BOND
     1    21    14    1
     2    16    14   ar
     3    16    15   ar
     4    14    11   ar
     5    20     2    1
     6    15     3   ar
     7     2    11   ar
     8     2    12   ar
     9    11    10   ar
    10     3    10   ar
    11     3    19    1
    12    10     1   ar
    13    12     8   ar
    14     1     8   ar
    15     1    18    1
    16     8     7    1
    17     7    17    1
    18     7     9    1
    19     9    13    1
    20    13     4    1
    21     5     4    1
    22     4     6    1
