7VW
  -OEChem-02242320013D

 89 90  0     1  0  0  0  0  0999 V2000
   -3.1960    0.0480    0.0250 N   0  0  0  0  0  0  0  0  0  0  0  0
   -9.4440    1.1170   -1.9810 C   0  0  0  0  0  0  0  0  0  0  0  0
   -5.5230    0.1100   -0.1250 O   0  0  0  0  0  0  0  0  0  0  0  0
  -10.0120   -0.1250   -2.1960 C   0  0  0  0  0  0  0  0  0  0  0  0
   -1.6720   -1.1880    1.4840 C   0  0  2  0  0  0  0  0  0  0  0  0
   -2.8890   -1.6440    2.2920 C   0  0  0  0  0  0  0  0  0  0  0  0
    1.5470    0.9830   -0.4300 C   0  0  2  0  0  0  0  0  0  0  0  0
    2.8310    0.8160    0.3400 C   0  0  0  0  0  0  0  0  0  0  0  0
    1.4510    2.4160   -0.9570 C   0  0  0  0  0  0  0  0  0  0  0  0
    1.5750    3.3980    0.2100 C   0  0  0  0  0  0  0  0  0  0  0  0
    5.2650    0.8250    0.4690 C   0  0  2  0  0  0  0  0  0  0  0  0
    5.6880    2.1740    1.0540 C   0  0  0  0  0  0  0  0  0  0  0  0
    6.3580    0.3090   -0.4680 C   0  0  0  0  0  0  0  0  0  0  0  0
    6.0020   -1.1010   -0.9410 C   0  0  2  0  0  0  0  0  0  0  0  0
   -9.5360   -1.2300   -1.5150 C   0  0  0  0  0  0  0  0  0  0  0  0
    6.0000   -2.0870    0.2500 C   0  0  0  0  0  0  0  0  0  0  0  0
    6.5700   -3.3680   -0.3990 C   0  0  0  0  0  0  0  0  0  0  0  0
    7.0740   -1.6370   -1.8640 C   0  0  0  0  0  0  0  0  0  0  0  0
   -0.3260   -3.0590    0.8250 C   0  0  0  0  0  0  0  0  0  0  0  0
    0.9930   -2.2890    0.9250 C   0  0  0  0  0  0  0  0  0  0  0  0
   -0.2040   -4.1420   -0.2490 C   0  0  0  0  0  0  0  0  0  0  0  0
   -0.6390   -3.7110    2.1740 C   0  0  0  0  0  0  0  0  0  0  0  0
    1.3420    4.8230   -0.2960 C   0  0  0  0  0  0  0  0  0  0  0  0
    0.5320    3.0580    1.2760 C   0  0  0  0  0  0  0  0  0  0  0  0
    2.9770    3.2950    0.8160 C   0  0  0  0  0  0  0  0  0  0  0  0
   -8.4910   -1.0930   -0.6200 C   0  0  0  0  0  0  0  0  0  0  0  0
   -7.9230    0.1480   -0.4060 C   0  0  0  0  0  0  0  0  0  0  0  0
   -8.3950    1.2520   -1.0900 C   0  0  0  0  0  0  0  0  0  0  0  0
   -6.7840    0.2970    0.5700 C   0  0  0  0  0  0  0  0  0  0  0  0
   -4.3990    0.2110    0.6090 C   0  0  0  0  0  0  0  0  0  0  0  0
   -1.9730    0.1590    0.8240 C   0  0  1  0  0  0  0  0  0  0  0  0
   -0.8230    0.5490   -0.0690 C   0  0  0  0  0  0  0  0  0  0  0  0
    0.4100    0.7100    0.4520 N   0  0  0  0  0  0  0  0  0  0  0  0
    4.0160    0.9870   -0.2800 N   0  0  0  0  0  0  0  0  0  0  0  0
    7.3760   -2.9050   -1.5350 N   0  0  0  0  0  0  0  0  0  0  0  0
   -4.4700    0.4500    1.7980 O   0  0  0  0  0  0  0  0  0  0  0  0
   -1.3780   -2.1580    0.4760 O   0  0  0  0  0  0  0  0  0  0  0  0
   -1.0070    0.7180   -1.2550 O   0  0  0  0  0  0  0  0  0  0  0  0
    2.7990    0.5290    1.5180 O   0  0  0  0  0  0  0  0  0  0  0  0
    7.5860   -1.0140   -2.7700 O   0  0  0  0  0  0  0  0  0  0  0  0
    5.9990    3.0770   -0.0090 O   0  0  0  0  0  0  0  0  0  0  0  0
   -3.1400   -0.1470   -0.9240 H   0  0  0  0  0  0  0  0  0  0  0  0
   -9.8160    1.9800   -2.5130 H   0  0  0  0  0  0  0  0  0  0  0  0
  -10.8280   -0.2320   -2.8950 H   0  0  0  0  0  0  0  0  0  0  0  0
   -0.8130   -1.0840    2.1480 H   0  0  0  0  0  0  0  0  0  0  0  0
   -2.6410   -2.5520    2.8410 H   0  0  0  0  0  0  0  0  0  0  0  0
   -3.1730   -0.8610    2.9940 H   0  0  0  0  0  0  0  0  0  0  0  0
   -3.7190   -1.8450    1.6150 H   0  0  0  0  0  0  0  0  0  0  0  0
    1.5330    0.2860   -1.2680 H   0  0  0  0  0  0  0  0  0  0  0  0
    2.2550    2.5960   -1.6700 H   0  0  0  0  0  0  0  0  0  0  0  0
    0.4890    2.5590   -1.4500 H   0  0  0  0  0  0  0  0  0  0  0  0
    5.1130    0.1100    1.2780 H   0  0  0  0  0  0  0  0  0  0  0  0
    4.8730    2.5830    1.6510 H   0  0  0  0  0  0  0  0  0  0  0  0
    6.5670    2.0370    1.6840 H   0  0  0  0  0  0  0  0  0  0  0  0
    6.4400    0.9720   -1.3300 H   0  0  0  0  0  0  0  0  0  0  0  0
    7.3100    0.2850    0.0630 H   0  0  0  0  0  0  0  0  0  0  0  0
    5.0320   -1.1020   -1.4390 H   0  0  0  0  0  0  0  0  0  0  0  0
   -9.9810   -2.2000   -1.6820 H   0  0  0  0  0  0  0  0  0  0  0  0
    6.6500   -1.7330    1.0510 H   0  0  0  0  0  0  0  0  0  0  0  0
    4.9870   -2.2530    0.6180 H   0  0  0  0  0  0  0  0  0  0  0  0
    7.1950   -3.9060    0.3130 H   0  0  0  0  0  0  0  0  0  0  0  0
    0.9060   -1.5180    1.6900 H   0  0  0  0  0  0  0  0  0  0  0  0
    1.7960   -2.9770    1.1910 H   0  0  0  0  0  0  0  0  0  0  0  0
    1.2160   -1.8250   -0.0360 H   0  0  0  0  0  0  0  0  0  0  0  0
    0.0190   -3.6770   -1.2090 H   0  0  0  0  0  0  0  0  0  0  0  0
    0.5990   -4.8290    0.0180 H   0  0  0  0  0  0  0  0  0  0  0  0
   -1.1430   -4.6900   -0.3200 H   0  0  0  0  0  0  0  0  0  0  0  0
   -1.5800   -4.2570    2.1030 H   0  0  0  0  0  0  0  0  0  0  0  0
    0.1620   -4.4010    2.4380 H   0  0  0  0  0  0  0  0  0  0  0  0
   -0.7220   -2.9400    2.9390 H   0  0  0  0  0  0  0  0  0  0  0  0
    2.0850    5.0660   -1.0560 H   0  0  0  0  0  0  0  0  0  0  0  0
    0.3440    4.8970   -0.7270 H   0  0  0  0  0  0  0  0  0  0  0  0
    1.4310    5.5230    0.5350 H   0  0  0  0  0  0  0  0  0  0  0  0
    0.3830    3.9200    1.9270 H   0  0  0  0  0  0  0  0  0  0  0  0
   -0.4100    2.8000    0.7930 H   0  0  0  0  0  0  0  0  0  0  0  0
    0.8810    2.2120    1.8680 H   0  0  0  0  0  0  0  0  0  0  0  0
    3.7130    3.2080    0.0160 H   0  0  0  0  0  0  0  0  0  0  0  0
    3.1840    4.1880    1.4050 H   0  0  0  0  0  0  0  0  0  0  0  0
    3.0310    2.4160    1.4570 H   0  0  0  0  0  0  0  0  0  0  0  0
   -8.1200   -1.9570   -0.0880 H   0  0  0  0  0  0  0  0  0  0  0  0
   -7.9510    2.2220   -0.9230 H   0  0  0  0  0  0  0  0  0  0  0  0
   -6.8800   -0.4510    1.3570 H   0  0  0  0  0  0  0  0  0  0  0  0
   -6.8110    1.2940    1.0110 H   0  0  0  0  0  0  0  0  0  0  0  0
   -2.1090    0.9180    1.5940 H   0  0  0  0  0  0  0  0  0  0  0  0
    0.5440    0.6450    1.4100 H   0  0  0  0  0  0  0  0  0  0  0  0
    4.0420    1.2170   -1.2210 H   0  0  0  0  0  0  0  0  0  0  0  0
    6.2760    3.9540    0.2890 H   0  0  0  0  0  0  0  0  0  0  0  0
    5.7590   -4.0070   -0.7470 H   0  0  0  0  0  0  0  0  0  0  0  0
    8.0420   -3.4440   -1.9890 H   0  0  0  0  0  0  0  0  0  0  0  0
 18 40  2  0  0  0  0
 18 35  1  0  0  0  0
 14 18  1  0  0  0  0
 17 35  1  0  0  0  0
 13 14  1  0  0  0  0
 11 13  1  0  0  0  0
 12 41  1  0  0  0  0
 10 23  1  0  0  0  0
 14 16  1  0  0  0  0
 11 12  1  0  0  0  0
 32 38  2  0  0  0  0
 11 34  1  0  0  0  0
  8 34  1  0  0  0  0
  3 29  1  0  0  0  0
  3 30  1  0  0  0  0
 16 17  1  0  0  0  0
 27 29  1  0  0  0  0
 15 26  2  0  0  0  0
 26 27  1  0  0  0  0
  7  8  1  0  0  0  0
  7 33  1  0  0  0  0
  7  9  1  0  0  0  0
 32 33  1  0  0  0  0
 31 32  1  0  0  0  0
  1 30  1  0  0  0  0
  1 31  1  0  0  0  0
 10 25  1  0  0  0  0
  9 10  1  0  0  0  0
 10 24  1  0  0  0  0
  8 39  2  0  0  0  0
 19 21  1  0  0  0  0
 30 36  2  0  0  0  0
  4 15  1  0  0  0  0
 27 28  2  0  0  0  0
  5 31  1  0  0  0  0
 19 20  1  0  0  0  0
  5 37  1  0  0  0  0
  5  6  1  0  0  0  0
 19 37  1  0  0  0  0
 19 22  1  0  0  0  0
  2  4  2  0  0  0  0
  2 28  1  0  0  0  0
  1 42  1  0  0  0  0
  2 43  1  0  0  0  0
  4 44  1  0  0  0  0
  5 45  1  0  0  0  0
  6 46  1  0  0  0  0
  6 47  1  0  0  0  0
  6 48  1  0  0  0  0
  7 49  1  0  0  0  0
  9 50  1  0  0  0  0
  9 51  1  0  0  0  0
 11 52  1  0  0  0  0
 12 53  1  0  0  0  0
 12 54  1  0  0  0  0
 13 55  1  0  0  0  0
 13 56  1  0  0  0  0
 14 57  1  0  0  0  0
 15 58  1  0  0  0  0
 16 59  1  0  0  0  0
 16 60  1  0  0  0  0
 17 61  1  0  0  0  0
 20 62  1  0  0  0  0
 20 63  1  0  0  0  0
 20 64  1  0  0  0  0
 21 65  1  0  0  0  0
 21 66  1  0  0  0  0
 21 67  1  0  0  0  0
 22 68  1  0  0  0  0
 22 69  1  0  0  0  0
 22 70  1  0  0  0  0
 23 71  1  0  0  0  0
 23 72  1  0  0  0  0
 23 73  1  0  0  0  0
 24 74  1  0  0  0  0
 24 75  1  0  0  0  0
 24 76  1  0  0  0  0
 25 77  1  0  0  0  0
 25 78  1  0  0  0  0
 25 79  1  0  0  0  0
 26 80  1  0  0  0  0
 28 81  1  0  0  0  0
 29 82  1  0  0  0  0
 29 83  1  0  0  0  0
 31 84  1  0  0  0  0
 33 85  1  0  0  0  0
 34 86  1  0  0  0  0
 41 87  1  0  0  0  0
 17 88  1  0  0  0  0
 35 89  1  0  0  0  0
M  END
> <OPENEYE_ISO_SMILES>
C[C@H]([C@@H](C(=O)N[C@@H](CC(C)(C)C)C(=O)N[C@@H](C[C@@H]1CCNC1=O)CO)NC(=O)OCc2ccccc2)OC(C)(C)C

> <OPENEYE_INCHI>
InChI=1S/C30H48N4O7/c1-19(41-30(5,6)7)24(34-28(39)40-18-20-11-9-8-10-12-20)27(38)33-23(16-29(2,3)4)26(37)32-22(17-35)15-21-13-14-31-25(21)36/h8-12,19,21-24,35H,13-18H2,1-7H3,(H,31,36)(H,32,37)(H,33,38)(H,34,39)/t19-,21+,22+,23+,24+/m1/s1

> <OPENEYE_INCHIKEY>
ZOTWBRVEQJNMNW-FFYZIMEISA-N

> <FORMULA>
C30H48N4O7

$$$$
