06I
  -OEChem-02242320003D

 54 58  0     0  0  0  0  0  0999 V2000
   -1.2200    1.3820    0.5220 C   0  0  0  0  0  0  0  0  0  0  0  0
   -0.9850   -0.0090    0.3950 C   0  0  0  0  0  0  0  0  0  0  0  0
   -5.9230   -1.6950   -2.5460 N   0  0  0  0  0  0  0  0  0  0  0  0
   -2.4210    1.8980    0.1990 N   0  0  0  0  0  0  0  0  0  0  0  0
    1.6810   -1.9980    2.1480 C   0  0  0  0  0  0  0  0  0  0  0  0
    2.8040   -1.6530    1.4160 C   0  0  0  0  0  0  0  0  0  0  0  0
    2.6990   -0.7710    0.3500 C   0  0  0  0  0  0  0  0  0  0  0  0
    5.0420   -1.0270    0.0360 C   0  0  0  0  0  0  0  0  0  0  0  0
    6.1470   -0.5410   -0.8660 C   0  0  0  0  0  0  0  0  0  0  0  0
    6.8650    0.5550   -0.6040 C   0  0  0  0  0  0  0  0  0  0  0  0
    6.6990    1.4590    0.5910 C   0  0  0  0  0  0  0  0  0  0  0  0
    7.4550   -0.6570   -2.6620 C   0  0  0  0  0  0  0  0  0  0  0  0
   -2.0020   -0.8270   -0.0640 C   0  0  0  0  0  0  0  0  0  0  0  0
   -3.2460   -0.2510   -0.3930 C   0  0  0  0  0  0  0  0  0  0  0  0
   -4.8890   -2.1970   -0.0650 C   0  0  0  0  0  0  0  0  0  0  0  0
   -4.9030   -0.8930   -2.1170 C   0  0  0  0  0  0  0  0  0  0  0  0
   -6.3980   -2.6910   -1.7790 C   0  0  0  0  0  0  0  0  0  0  0  0
   -3.4250    1.1060   -0.2580 C   0  0  0  0  0  0  0  0  0  0  0  0
   -2.3700    4.1410   -0.7190 C   0  0  0  0  0  0  0  0  0  0  0  0
   -2.6010    5.4950   -0.5340 C   0  0  0  0  0  0  0  0  0  0  0  0
   -3.0860    5.9370    0.6820 C   0  0  0  0  0  0  0  0  0  0  0  0
    1.4670   -0.2340    0.0140 C   0  0  0  0  0  0  0  0  0  0  0  0
   -4.3540   -1.1050   -0.8880 C   0  0  0  0  0  0  0  0  0  0  0  0
   -2.6380    3.2740    0.3370 C   0  0  0  0  0  0  0  0  0  0  0  0
   -3.1230    3.7950    1.5300 C   0  0  0  0  0  0  0  0  0  0  0  0
    0.3350   -0.5810    0.7490 C   0  0  0  0  0  0  0  0  0  0  0  0
    0.4490   -1.4670    1.8200 C   0  0  0  0  0  0  0  0  0  0  0  0
    6.4890   -1.1660   -1.9750 N   0  0  0  0  0  0  0  0  0  0  0  0
   -5.8980   -2.9460   -0.5580 N   0  0  0  0  0  0  0  0  0  0  0  0
   -3.3290    5.0900    1.6630 N   0  0  0  0  0  0  0  0  0  0  0  0
   -0.3340    2.1130    0.9310 O   0  0  0  0  0  0  0  0  0  0  0  0
    3.8040   -0.4350   -0.3660 O   0  0  0  0  0  0  0  0  0  0  0  0
   -4.4300   -2.4240    1.0400 O   0  0  0  0  0  0  0  0  0  0  0  0
   -7.3070   -3.3790   -2.2010 O   0  0  0  0  0  0  0  0  0  0  0  0
    8.0390    0.7580   -1.9010 S   0  0  0  0  0  0  0  0  0  0  0  0
    1.8210   -3.1070    3.4760 Cl  0  0  0  0  0  0  0  0  0  0  0  0
    3.7660   -2.0700    1.6770 H   0  0  0  0  0  0  0  0  0  0  0  0
    4.9650   -2.1120   -0.0350 H   0  0  0  0  0  0  0  0  0  0  0  0
    5.2620   -0.7450    1.0650 H   0  0  0  0  0  0  0  0  0  0  0  0
    7.3360    1.1080    1.4030 H   0  0  0  0  0  0  0  0  0  0  0  0
    6.9820    2.4750    0.3200 H   0  0  0  0  0  0  0  0  0  0  0  0
    5.6580    1.4460    0.9150 H   0  0  0  0  0  0  0  0  0  0  0  0
    7.8360   -1.0640   -3.5870 H   0  0  0  0  0  0  0  0  0  0  0  0
   -1.8470   -1.8910   -0.1650 H   0  0  0  0  0  0  0  0  0  0  0  0
   -4.5330   -0.0980   -2.7480 H   0  0  0  0  0  0  0  0  0  0  0  0
   -4.3790    1.5450   -0.5100 H   0  0  0  0  0  0  0  0  0  0  0  0
   -1.9950    3.7670   -1.6610 H   0  0  0  0  0  0  0  0  0  0  0  0
   -2.4040    6.1960   -1.3320 H   0  0  0  0  0  0  0  0  0  0  0  0
   -3.2680    6.9910    0.8310 H   0  0  0  0  0  0  0  0  0  0  0  0
    1.3840    0.4530   -0.8160 H   0  0  0  0  0  0  0  0  0  0  0  0
   -3.3350    3.1320    2.3560 H   0  0  0  0  0  0  0  0  0  0  0  0
   -0.4260   -1.7380    2.3920 H   0  0  0  0  0  0  0  0  0  0  0  0
   -6.2630   -3.6720   -0.0280 H   0  0  0  0  0  0  0  0  0  0  0  0
   -6.3140   -1.5400   -3.4200 H   0  0  0  0  0  0  0  0  0  0  0  0
 12 28  2  0  0  0  0
 12 35  1  0  0  0  0
  9 28  1  0  0  0  0
 10 35  1  0  0  0  0
  3 16  1  0  0  0  0
  3 17  1  0  0  0  0
 17 34  2  0  0  0  0
 16 23  2  0  0  0  0
  9 10  2  0  0  0  0
  8  9  1  0  0  0  0
  7 32  1  0  0  0  0
  8 32  1  0  0  0  0
 17 29  1  0  0  0  0
 10 11  1  0  0  0  0
  6  7  2  0  0  0  0
  5  6  1  0  0  0  0
  7 22  1  0  0  0  0
  5 36  1  0  0  0  0
  5 27  2  0  0  0  0
 22 26  2  0  0  0  0
 14 23  1  0  0  0  0
 15 23  1  0  0  0  0
 26 27  1  0  0  0  0
  2 26  1  0  0  0  0
 13 14  1  0  0  0  0
  2 13  2  0  0  0  0
 15 29  1  0  0  0  0
 14 18  2  0  0  0  0
  1  2  1  0  0  0  0
 15 33  2  0  0  0  0
  4 18  1  0  0  0  0
  1  4  1  0  0  0  0
  1 31  2  0  0  0  0
  4 24  1  0  0  0  0
 19 24  2  0  0  0  0
 19 20  1  0  0  0  0
 24 25  1  0  0  0  0
 20 21  2  0  0  0  0
 25 30  2  0  0  0  0
 21 30  1  0  0  0  0
  6 37  1  0  0  0  0
  8 38  1  0  0  0  0
  8 39  1  0  0  0  0
 11 40  1  0  0  0  0
 11 41  1  0  0  0  0
 11 42  1  0  0  0  0
 12 43  1  0  0  0  0
 13 44  1  0  0  0  0
 16 45  1  0  0  0  0
 18 46  1  0  0  0  0
 19 47  1  0  0  0  0
 20 48  1  0  0  0  0
 21 49  1  0  0  0  0
 22 50  1  0  0  0  0
 25 51  1  0  0  0  0
 27 52  1  0  0  0  0
 29 53  1  0  0  0  0
  3 54  1  0  0  0  0
M  END
> <OPENEYE_ISO_SMILES>
Cc1c(ncs1)COc2cc(cc(c2)Cl)c3cc(cn(c3=O)c4cccnc4)c5c[nH]c(=O)[nH]c5=O

> <OPENEYE_INCHI>
InChI=1S/C25H18ClN5O4S/c1-14-22(29-13-36-14)12-35-19-6-15(5-17(26)8-19)20-7-16(21-10-28-25(34)30-23(21)32)11-31(24(20)33)18-3-2-4-27-9-18/h2-11,13H,12H2,1H3,(H2,28,30,32,34)

> <OPENEYE_INCHIKEY>
RJHJFSODWKKAIP-UHFFFAOYSA-N

> <FORMULA>
C25H18ClN5O4S

$$$$
