81L
  -OEChem-02242320013D

 77 79  0     1  0  0  0  0  0999 V2000
    9.4180    2.0740    1.1560 C   0  0  0  0  0  0  0  0  0  0  0  0
    1.6460   -1.2780   -0.3200 C   0  0  2  0  0  0  0  0  0  0  0  0
    0.3990   -0.4500   -0.1460 C   0  0  0  0  0  0  0  0  0  0  0  0
   -1.9080    0.0830   -0.7200 C   0  0  2  0  0  0  0  0  0  0  0  0
   -3.1380   -0.7720   -0.5550 C   0  0  0  0  0  0  0  0  0  0  0  0
   -5.5460   -1.0270   -0.2860 C   0  0  1  0  0  0  0  0  0  0  0  0
   -6.6400   -0.2180    0.4140 C   0  0  0  0  0  0  0  0  0  0  0  0
    9.1020    0.8760    1.7690 C   0  0  0  0  0  0  0  0  0  0  0  0
   -6.1900    0.1230    1.8370 C   0  0  2  0  0  0  0  0  0  0  0  0
   -7.2930    0.9160    2.5770 C   0  0  0  0  0  0  0  0  0  0  0  0
   -6.8630    2.3760    2.3120 C   0  0  0  0  0  0  0  0  0  0  0  0
   -5.0100    1.0700    1.8060 C   0  0  0  0  0  0  0  0  0  0  0  0
    1.3110   -2.2060    1.9750 C   0  0  0  0  0  0  0  0  0  0  0  0
   -6.0450   -1.4750   -1.6610 C   0  0  0  0  0  0  0  0  0  0  0  0
   -1.1620    3.3840   -2.0070 C   0  0  0  0  0  0  0  0  0  0  0  0
   -0.7580    2.7610   -3.3450 C   0  0  0  0  0  0  0  0  0  0  0  0
    8.1210    0.0630    1.2320 C   0  0  0  0  0  0  0  0  0  0  0  0
    1.5240   -2.5620    0.5020 C   0  0  0  0  0  0  0  0  0  0  0  0
    0.3340   -3.3810   -0.0020 C   0  0  0  0  0  0  0  0  0  0  0  0
    2.8060   -3.3850    0.3570 C   0  0  0  0  0  0  0  0  0  0  0  0
   -2.0360    0.9180   -1.9960 C   0  0  0  0  0  0  0  0  0  0  0  0
    7.4570    0.4480    0.0830 C   0  0  0  0  0  0  0  0  0  0  0  0
    7.7740    1.6460   -0.5300 C   0  0  0  0  0  0  0  0  0  0  0  0
    8.7500    2.4610    0.0100 C   0  0  0  0  0  0  0  0  0  0  0  0
    6.3890   -0.4390   -0.5030 C   0  0  0  0  0  0  0  0  0  0  0  0
   -0.8560    1.8870   -2.0910 C   0  0  0  0  0  0  0  0  0  0  0  0
    4.0330   -0.7900   -0.3530 C   0  0  0  0  0  0  0  0  0  0  0  0
    2.8080   -0.5130    0.1370 N   0  0  0  0  0  0  0  0  0  0  0  0
   -0.7250   -0.7760   -0.8150 N   0  0  0  0  0  0  0  0  0  0  0  0
   -4.3510   -0.1950   -0.4470 N   0  0  0  0  0  0  0  0  0  0  0  0
   -5.4150    2.3220    2.0810 N   0  0  0  0  0  0  0  0  0  0  0  0
   -3.8660    0.7460    1.5680 O   0  0  0  0  0  0  0  0  0  0  0  0
   -6.4760   -0.3340   -2.4060 O   0  0  0  0  0  0  0  0  0  0  0  0
    4.1730   -1.6740   -1.1740 O   0  0  0  0  0  0  0  0  0  0  0  0
    0.4070    0.5090    0.5950 O   0  0  0  0  0  0  0  0  0  0  0  0
   -3.0360   -1.9800   -0.5200 O   0  0  0  0  0  0  0  0  0  0  0  0
    5.1010   -0.0860    0.0680 O   0  0  0  0  0  0  0  0  0  0  0  0
   10.1840    2.7090    1.5760 H   0  0  0  0  0  0  0  0  0  0  0  0
    1.7690   -1.5320   -1.3730 H   0  0  0  0  0  0  0  0  0  0  0  0
   -1.8090    0.7460    0.1390 H   0  0  0  0  0  0  0  0  0  0  0  0
   -5.3010   -1.9030    0.3150 H   0  0  0  0  0  0  0  0  0  0  0  0
   -6.8220    0.7030   -0.1400 H   0  0  0  0  0  0  0  0  0  0  0  0
   -7.5570   -0.8060    0.4550 H   0  0  0  0  0  0  0  0  0  0  0  0
    9.6210    0.5750    2.6670 H   0  0  0  0  0  0  0  0  0  0  0  0
   -5.9370   -0.7840    2.3840 H   0  0  0  0  0  0  0  0  0  0  0  0
   -8.2740    0.7140    2.1470 H   0  0  0  0  0  0  0  0  0  0  0  0
   -7.2820    0.6940    3.6440 H   0  0  0  0  0  0  0  0  0  0  0  0
   -7.3720    2.7650    1.4300 H   0  0  0  0  0  0  0  0  0  0  0  0
   -7.0830    2.9970    3.1800 H   0  0  0  0  0  0  0  0  0  0  0  0
    0.3970   -1.6200    2.0790 H   0  0  0  0  0  0  0  0  0  0  0  0
    1.2240   -3.1210    2.5610 H   0  0  0  0  0  0  0  0  0  0  0  0
    2.1590   -1.6230    2.3340 H   0  0  0  0  0  0  0  0  0  0  0  0
   -5.2370   -1.9740   -2.1960 H   0  0  0  0  0  0  0  0  0  0  0  0
   -6.8800   -2.1640   -1.5380 H   0  0  0  0  0  0  0  0  0  0  0  0
   -0.4320    4.0190   -1.5060 H   0  0  0  0  0  0  0  0  0  0  0  0
   -2.2040    3.6780   -1.8830 H   0  0  0  0  0  0  0  0  0  0  0  0
   -1.5350    2.6450   -4.1010 H   0  0  0  0  0  0  0  0  0  0  0  0
    0.2380    2.9870   -3.7250 H   0  0  0  0  0  0  0  0  0  0  0  0
    7.8740   -0.8730    1.7110 H   0  0  0  0  0  0  0  0  0  0  0  0
    0.4900   -3.6430   -1.0480 H   0  0  0  0  0  0  0  0  0  0  0  0
    0.2410   -4.2910    0.5910 H   0  0  0  0  0  0  0  0  0  0  0  0
   -0.5780   -2.7910    0.0930 H   0  0  0  0  0  0  0  0  0  0  0  0
    3.6540   -2.8020    0.7160 H   0  0  0  0  0  0  0  0  0  0  0  0
    2.7200   -4.2990    0.9430 H   0  0  0  0  0  0  0  0  0  0  0  0
    2.9580   -3.6380   -0.6920 H   0  0  0  0  0  0  0  0  0  0  0  0
   -2.0350    0.2580   -2.8640 H   0  0  0  0  0  0  0  0  0  0  0  0
   -2.9680    1.4820   -1.9700 H   0  0  0  0  0  0  0  0  0  0  0  0
    7.2550    1.9460   -1.4290 H   0  0  0  0  0  0  0  0  0  0  0  0
    8.9980    3.3970   -0.4690 H   0  0  0  0  0  0  0  0  0  0  0  0
    6.3560   -0.3040   -1.5840 H   0  0  0  0  0  0  0  0  0  0  0  0
    6.6150   -1.4800   -0.2730 H   0  0  0  0  0  0  0  0  0  0  0  0
    0.0760    1.5380   -1.6480 H   0  0  0  0  0  0  0  0  0  0  0  0
    2.6960    0.1930    0.7930 H   0  0  0  0  0  0  0  0  0  0  0  0
   -0.7510   -1.5780   -1.3590 H   0  0  0  0  0  0  0  0  0  0  0  0
   -4.4330    0.7710   -0.4750 H   0  0  0  0  0  0  0  0  0  0  0  0
   -4.8250    3.0910    2.1210 H   0  0  0  0  0  0  0  0  0  0  0  0
   -6.8050   -0.5430   -3.2910 H   0  0  0  0  0  0  0  0  0  0  0  0
  1 24  2  0  0  0  0
 23 24  1  0  0  0  0
  1  8  1  0  0  0  0
 18 19  1  0  0  0  0
 18 20  1  0  0  0  0
 22 23  2  0  0  0  0
  2 18  1  0  0  0  0
 13 18  1  0  0  0  0
  8 17  2  0  0  0  0
 27 34  2  0  0  0  0
  5 36  2  0  0  0  0
  2 28  1  0  0  0  0
  2  3  1  0  0  0  0
 17 22  1  0  0  0  0
 22 25  1  0  0  0  0
  3 29  1  0  0  0  0
  4 29  1  0  0  0  0
 27 28  1  0  0  0  0
 27 37  1  0  0  0  0
 21 26  1  0  0  0  0
 16 26  1  0  0  0  0
 15 26  1  0  0  0  0
  4 21  1  0  0  0  0
  3 35  2  0  0  0  0
 15 16  1  0  0  0  0
  4  5  1  0  0  0  0
  5 30  1  0  0  0  0
 10 11  1  0  0  0  0
  9 10  1  0  0  0  0
 25 37  1  0  0  0  0
 11 31  1  0  0  0  0
  6 30  1  0  0  0  0
  6 14  1  0  0  0  0
  6  7  1  0  0  0  0
 14 33  1  0  0  0  0
  7  9  1  0  0  0  0
  9 12  1  0  0  0  0
 12 31  1  0  0  0  0
 12 32  2  0  0  0  0
  1 38  1  0  0  0  0
  2 39  1  0  0  0  0
  4 40  1  0  0  0  0
  6 41  1  0  0  0  0
  7 42  1  0  0  0  0
  7 43  1  0  0  0  0
  8 44  1  0  0  0  0
  9 45  1  0  0  0  0
 10 46  1  0  0  0  0
 10 47  1  0  0  0  0
 11 48  1  0  0  0  0
 11 49  1  0  0  0  0
 13 50  1  0  0  0  0
 13 51  1  0  0  0  0
 13 52  1  0  0  0  0
 14 53  1  0  0  0  0
 14 54  1  0  0  0  0
 15 55  1  0  0  0  0
 15 56  1  0  0  0  0
 16 57  1  0  0  0  0
 16 58  1  0  0  0  0
 17 59  1  0  0  0  0
 19 60  1  0  0  0  0
 19 61  1  0  0  0  0
 19 62  1  0  0  0  0
 20 63  1  0  0  0  0
 20 64  1  0  0  0  0
 20 65  1  0  0  0  0
 21 66  1  0  0  0  0
 21 67  1  0  0  0  0
 23 68  1  0  0  0  0
 24 69  1  0  0  0  0
 25 70  1  0  0  0  0
 25 71  1  0  0  0  0
 26 72  1  0  0  0  0
 28 73  1  0  0  0  0
 29 74  1  0  0  0  0
 30 75  1  0  0  0  0
 31 76  1  0  0  0  0
 33 77  1  0  0  0  0
M  END
> <OPENEYE_ISO_SMILES>
CC(C)(C)[C@@H](C(=O)N[C@@H](CC1CC1)C(=O)N[C@@H](C[C@@H]2CCNC2=O)CO)NC(=O)OCc3ccccc3

> <OPENEYE_INCHI>
InChI=1S/C27H40N4O6/c1-27(2,3)22(31-26(36)37-16-18-7-5-4-6-8-18)25(35)30-21(13-17-9-10-17)24(34)29-20(15-32)14-19-11-12-28-23(19)33/h4-8,17,19-22,32H,9-16H2,1-3H3,(H,28,33)(H,29,34)(H,30,35)(H,31,36)/t19-,20-,21-,22+/m0/s1

> <OPENEYE_INCHIKEY>
QFKWZICTDWNTDA-MYGLTJDJSA-N

> <FORMULA>
C27H40N4O6

$$$$
